@<TRIPOS>MOLECULE
*****
 28 31 0 0 0
SMALL
GASTEIGER

@<TRIPOS>ATOM
      1 N         137.9955  140.3319  157.7301 N.3     1  UNL1       -0.2711
      2 C         137.5713  140.4908  159.1601 C.3     1  UNL1        0.0939
      3 C         138.3517  139.8219  160.2526 C.3     1  UNL1        0.1123
      4 N         139.5561  138.9940  159.9152 N.am    1  UNL1       -0.2612
      5 C         140.3364  138.3250  161.0077 C.2     1  UNL1        0.3072
      6 O         141.5408  137.4971  160.6703 O.2     1  UNL1       -0.2523
      7 N         139.9123  138.4840  162.4376 N.am    1  UNL1       -0.2640
      8 C         140.6926  137.8150  163.5302 C.3     1  UNL1        0.0954
      9 C         140.2684  137.9740  164.9602 C.3     1  UNL1        0.0307
     10 C         139.0640  138.8019  165.2976 C.3     1  UNL1        0.0801
     11 C         138.2837  139.4708  164.2051 C.3     1  UNL1        0.0307
     12 C         138.7078  139.3119  162.7751 C.3     1  UNL1        0.0954
     13 C         139.9802  138.8350  158.4852 C.3     1  UNL1        0.1123
     14 C         139.1999  139.5040  157.3927 C.3     1  UNL1        0.0939
     15 C         138.6399  138.9608  166.7276 C.2     1  UNL1        0.2253
     16 O         137.5538  138.0917  167.2888 O.2     1  UNL1       -0.2749
     17 N         140.0440  141.3474  169.0706 N.am    1  UNL1       -0.2796
     18 C         140.8331  141.7171  168.0271 C.3     1  UNL1        0.0933
     19 C         140.9988  141.7967  167.8127 C.3     1  UNL1        0.0199
     20 C         139.9895  140.7014  167.6351 C.3     1  UNL1        0.0018
     21 C         139.1176  140.2914  168.7847 C.3     1  UNL1        0.0018
     22 C         139.2550  140.9767  170.1119 C.3     1  UNL1        0.0199
     23 C         140.2642  142.0720  170.2895 C.3     1  UNL1        0.0018
     24 C         141.1361  142.4820  169.1399 C.3     1  UNL1        0.0018
     25 C         140.1233  141.3831  168.9626 C.3     1  UNL1        0.0933
     26 C         137.8970  141.9614  155.7090 C.3     1  UNL1        0.0173
     27 C         137.2151  141.0009  156.6376 C.3     1  UNL1        0.0577
     28 C         135.7530  140.7093  156.4737 C.3     1  UNL1        0.0173
@<TRIPOS>BOND
     1    26    27    1
     2    27    28    1
     3    27     1    1
     4     1     2    1
     5     2     3    1
     6     3     4    1
     7     4     5   am
     8     5     6    2
     9     5     7   am
    10     7     8    1
    11     8     9    1
    12     9    10    1
    13    10    15    1
    14    15    16    2
    15    15    17   am
    16    17    18    1
    17    18    19    1
    18    19    20    1
    19    20    21    1
    20    21    22    1
    21    22    23    1
    22    23    24    1
    23    22    25    1
    24    10    11    1
    25    11    12    1
    26     4    13    1
    27    13    14    1
    28    14     1    1
    29    12     7    1
    30    25    17    1
    31    24    19    1
@<TRIPOS>MOLECULE
*****
 28 31 0 0 0
SMALL
GASTEIGER

@<TRIPOS>ATOM
      1 N         139.5679  138.5523  157.5050 N.3     1  UNL1       -0.2711
      2 C         139.5459  138.1071  158.9372 C.3     1  UNL1        0.0939
      3 C         139.1688  139.0763  160.0181 C.3     1  UNL1        0.1123
      4 N         138.8138  140.4907  159.6669 N.am    1  UNL1       -0.2612
      5 C         138.4367  141.4599  160.7479 C.2     1  UNL1        0.3072
      6 O         138.0816  142.8743  160.3966 O.2     1  UNL1       -0.2523
      7 N         138.4147  141.0147  162.1801 N.am    1  UNL1       -0.2640
      8 C         138.0376  141.9839  163.2610 C.3     1  UNL1        0.0954
      9 C         138.0156  141.5386  164.6933 C.3     1  UNL1        0.0307
     10 C         138.3707  140.1242  165.0446 C.3     1  UNL1        0.0801
     11 C         138.7478  139.1551  163.9636 C.3     1  UNL1        0.0307
     12 C         138.7698  139.6002  162.5314 C.3     1  UNL1        0.0954
     13 C         138.8358  140.9359  158.2347 C.3     1  UNL1        0.1123
     14 C         139.2129  139.9667  157.1537 C.3     1  UNL1        0.0939
     15 C         138.3487  139.6791  166.4768 C.2     1  UNL1        0.2253
     16 O         137.4599  138.5459  166.8964 O.2     1  UNL1       -0.2749
     17 N         140.3214  141.1372  169.1488 N.am    1  UNL1       -0.2796
     18 C         140.7964  141.9619  168.1779 C.3     1  UNL1        0.0933
     19 C         140.8974  142.1350  167.9790 C.3     1  UNL1        0.0199
     20 C         139.8839  141.0836  167.6366 C.3     1  UNL1        0.0018
     21 C         139.3581  140.1723  168.7057 C.3     1  UNL1        0.0018
     22 C         139.8458  140.3125  170.1173 C.3     1  UNL1        0.0199
     23 C         140.8593  141.3639  170.4597 C.3     1  UNL1        0.0018
     24 C         141.3851  142.2752  169.3905 C.3     1  UNL1        0.0018
     25 C         140.3682  141.2200  169.0478 C.3     1  UNL1        0.0933
     26 C         138.9758  137.2751  155.3214 C.3     1  UNL1        0.0173
     27 C         139.9450  137.5831  156.4240 C.3     1  UNL1        0.0577
     28 C         141.2912  136.9220  156.4456 C.3     1  UNL1        0.0173
@<TRIPOS>BOND
     1    26    27    1
     2    27    28    1
     3    27     1    1
     4     1     2    1
     5     2     3    1
     6     3     4    1
     7     4     5   am
     8     5     6    2
     9     5     7   am
    10     7     8    1
    11     8     9    1
    12     9    10    1
    13    10    15    1
    14    15    16    2
    15    15    17   am
    16    17    18    1
    17    18    19    1
    18    19    20    1
    19    20    21    1
    20    21    22    1
    21    22    23    1
    22    23    24    1
    23    22    25    1
    24    10    11    1
    25    11    12    1
    26     4    13    1
    27    13    14    1
    28    14     1    1
    29    12     7    1
    30    25    17    1
    31    24    19    1
@<TRIPOS>MOLECULE
*****
 28 31 0 0 0
SMALL
GASTEIGER

@<TRIPOS>ATOM
      1 N         142.6151  137.9302  156.5379 N.3     1  UNL1       -0.2711
      2 C         142.5919  137.7239  158.0234 C.3     1  UNL1        0.0939
      3 C         141.4285  138.2178  158.8312 C.3     1  UNL1        0.1123
      4 N         140.2882  138.9181  158.1535 N.am    1  UNL1       -0.2612
      5 C         139.1248  139.4120  158.9613 C.2     1  UNL1        0.3072
      6 O         137.9846  140.1123  158.2835 O.2     1  UNL1       -0.2523
      7 N         139.1016  139.2056  160.4468 N.am    1  UNL1       -0.2640
      8 C         137.9382  139.6995  161.2546 C.3     1  UNL1        0.0954
      9 C         137.9151  139.4931  162.7402 C.3     1  UNL1        0.0307
     10 C         139.0553  138.7928  163.4179 C.3     1  UNL1        0.0801
     11 C         140.2188  138.2989  162.6101 C.3     1  UNL1        0.0307
     12 C         140.2419  138.5053  161.1246 C.3     1  UNL1        0.0954
     13 C         140.3114  139.1245  156.6680 C.3     1  UNL1        0.1123
     14 C         141.4748  138.6305  155.8602 C.3     1  UNL1        0.0939
     15 C         139.0322  138.5865  164.9034 C.2     1  UNL1        0.2253
     16 O         138.5860  137.2717  165.4711 O.2     1  UNL1       -0.2749
     17 N         139.9918  141.0644  167.3725 N.am    1  UNL1       -0.2796
     18 C         140.2366  141.8583  166.2964 C.3     1  UNL1        0.0933
     19 C         140.2886  142.0262  166.0754 C.3     1  UNL1        0.0199
     20 C         139.7868  140.6272  165.8732 C.3     1  UNL1        0.0018
     21 C         139.5158  139.7490  167.0586 C.3     1  UNL1        0.0018
     22 C         139.7467  140.2698  168.4462 C.3     1  UNL1        0.0199
     23 C         140.2484  141.6688  168.6484 C.3     1  UNL1        0.0018
     24 C         140.5194  142.5470  167.4630 C.3     1  UNL1        0.0018
     25 C         140.0159  141.1432  167.2611 C.3     1  UNL1        0.0933
     26 C         144.6755  138.4145  155.0313 C.3     1  UNL1        0.0173
     27 C         143.7785  137.4363  155.7301 C.3     1  UNL1        0.0577
     28 C         144.0449  135.9642  155.6212 C.3     1  UNL1        0.0173
@<TRIPOS>BOND
     1    26    27    1
     2    27    28    1
     3    27     1    1
     4     1     2    1
     5     2     3    1
     6     3     4    1
     7     4     5   am
     8     5     6    2
     9     5     7   am
    10     7     8    1
    11     8     9    1
    12     9    10    1
    13    10    15    1
    14    15    16    2
    15    15    17   am
    16    17    18    1
    17    18    19    1
    18    19    20    1
    19    20    21    1
    20    21    22    1
    21    22    23    1
    22    23    24    1
    23    22    25    1
    24    10    11    1
    25    11    12    1
    26     4    13    1
    27    13    14    1
    28    14     1    1
    29    12     7    1
    30    25    17    1
    31    24    19    1
@<TRIPOS>MOLECULE
*****
 28 31 0 0 0
SMALL
GASTEIGER

@<TRIPOS>ATOM
      1 N         143.9909  140.6198  158.3359 N.3     1  UNL1       -0.2711
      2 C         143.6248  139.9666  159.6356 C.3     1  UNL1        0.0939
      3 C         143.6856  140.7512  160.9126 C.3     1  UNL1        0.1123
      4 N         144.1124  142.1890  160.8899 N.am    1  UNL1       -0.2612
      5 C         144.1731  142.9736  162.1669 C.2     1  UNL1        0.3072
      6 O         144.5999  144.4114  162.1441 O.2     1  UNL1       -0.2523
      7 N         143.8071  142.3205  163.4666 N.am    1  UNL1       -0.2640
      8 C         143.8678  143.1051  164.7436 C.3     1  UNL1        0.0954
      9 C         143.5018  142.4518  166.0434 C.3     1  UNL1        0.0307
     10 C         143.0750  141.0140  166.0661 C.3     1  UNL1        0.0801
     11 C         143.0142  140.2294  164.7891 C.3     1  UNL1        0.0307
     12 C         143.3803  140.8826  163.4894 C.3     1  UNL1        0.0954
     13 C         144.4784  142.8422  159.5902 C.3     1  UNL1        0.1123
     14 C         144.4177  142.0576  158.3132 C.3     1  UNL1        0.0939
     15 C         142.7089  140.3609  167.3658 C.2     1  UNL1        0.2253
     16 O         143.1655  138.9620  167.6570 O.2     1  UNL1       -0.2749
     17 N         140.7393  141.8983  169.9952 N.am    1  UNL1       -0.2796
     18 C         140.6934  142.9707  169.1609 C.3     1  UNL1        0.0933
     19 C         140.6817  143.1955  168.9903 C.3     1  UNL1        0.0199
     20 C         141.4202  141.9574  168.5761 C.3     1  UNL1        0.0018
     21 C         141.4724  140.7727  169.4946 C.3     1  UNL1        0.0018
     22 C         140.7861  140.8261  170.8273 C.3     1  UNL1        0.0199
     23 C         140.0476  142.0642  171.2416 C.3     1  UNL1        0.0018
     24 C         139.9954  143.2489  170.3231 C.3     1  UNL1        0.0018
     25 C         140.7361  142.0063  169.9083 C.3     1  UNL1        0.0933
     26 C         144.8885  140.1389  155.9457 C.3     1  UNL1        0.0173
     27 C         143.9301  139.8352  157.0589 C.3     1  UNL1        0.0577
     28 C         142.9110  138.7468  156.8952 C.3     1  UNL1        0.0173
@<TRIPOS>BOND
     1    26    27    1
     2    27    28    1
     3    27     1    1
     4     1     2    1
     5     2     3    1
     6     3     4    1
     7     4     5   am
     8     5     6    2
     9     5     7   am
    10     7     8    1
    11     8     9    1
    12     9    10    1
    13    10    15    1
    14    15    16    2
    15    15    17   am
    16    17    18    1
    17    18    19    1
    18    19    20    1
    19    20    21    1
    20    21    22    1
    21    22    23    1
    22    23    24    1
    23    22    25    1
    24    10    11    1
    25    11    12    1
    26     4    13    1
    27    13    14    1
    28    14     1    1
    29    12     7    1
    30    25    17    1
    31    24    19    1
@<TRIPOS>MOLECULE
*****
 28 31 0 0 0
SMALL
GASTEIGER

@<TRIPOS>ATOM
      1 N         139.9002  143.0960  159.0710 N.3     1  UNL1       -0.2711
      2 C         139.8285  143.1052  160.5693 C.3     1  UNL1        0.0939
      3 C         139.6044  141.8244  161.3172 C.3     1  UNL1        0.1123
      4 N         139.4519  140.5345  160.5670 N.am    1  UNL1       -0.2612
      5 C         139.2278  139.2538  161.3149 C.2     1  UNL1        0.3072
      6 O         139.0754  137.9639  160.5647 O.2     1  UNL1       -0.2523
      7 N         139.1561  139.2629  162.8132 N.am    1  UNL1       -0.2640
      8 C         138.9319  137.9822  163.5611 C.3     1  UNL1        0.0954
      9 C         138.8602  137.9914  165.0594 C.3     1  UNL1        0.0307
     10 C         139.0126  139.2813  165.8097 C.3     1  UNL1        0.0801
     11 C         139.2368  140.5620  165.0617 C.3     1  UNL1        0.0307
     12 C         139.3085  140.5529  163.5635 C.3     1  UNL1        0.0954
     13 C         139.5237  140.5254  159.0688 C.3     1  UNL1        0.1123
     14 C         139.7478  141.8062  158.3208 C.3     1  UNL1        0.0939
     15 C         138.9409  139.2904  167.3079 C.2     1  UNL1        0.2253
     16 O         137.7237  138.7574  168.0038 O.2     1  UNL1       -0.2749
     17 N         141.5374  140.5302  169.5167 N.am    1  UNL1       -0.2796
     18 C         142.2097  140.8033  168.3671 C.3     1  UNL1        0.0933
     19 C         142.3525  140.8615  168.1304 C.3     1  UNL1        0.0199
     20 C         140.9884  140.2408  168.0689 C.3     1  UNL1        0.0018
     21 C         140.2443  139.9383  169.3357 C.3     1  UNL1        0.0018
     22 C         140.8642  140.2566  170.6640 C.3     1  UNL1        0.0199
     23 C         142.2283  140.8774  170.7255 C.3     1  UNL1        0.0018
     24 C         142.9725  141.1798  169.4587 C.3     1  UNL1        0.0018
     25 C         141.6038  140.5570  169.3979 C.3     1  UNL1        0.0933
     26 C         139.6133  144.5256  156.9207 C.3     1  UNL1        0.0173
     27 C         140.1244  144.3768  158.3231 C.3     1  UNL1        0.0577
     28 C         140.8595  145.5087  158.9775 C.3     1  UNL1        0.0173
@<TRIPOS>BOND
     1    26    27    1
     2    27    28    1
     3    27     1    1
     4     1     2    1
     5     2     3    1
     6     3     4    1
     7     4     5   am
     8     5     6    2
     9     5     7   am
    10     7     8    1
    11     8     9    1
    12     9    10    1
    13    10    15    1
    14    15    16    2
    15    15    17   am
    16    17    18    1
    17    18    19    1
    18    19    20    1
    19    20    21    1
    20    21    22    1
    21    22    23    1
    22    23    24    1
    23    22    25    1
    24    10    11    1
    25    11    12    1
    26     4    13    1
    27    13    14    1
    28    14     1    1
    29    12     7    1
    30    25    17    1
    31    24    19    1
@<TRIPOS>MOLECULE
*****
 28 31 0 0 0
SMALL
GASTEIGER

@<TRIPOS>ATOM
      1 N         143.6247  140.0799  157.6250 N.3     1  UNL1       -0.2711
      2 C         144.0797  140.1381  159.0531 C.3     1  UNL1        0.0939
      3 C         143.2154  139.5697  160.1394 C.3     1  UNL1        0.1123
      4 N         141.8961  138.9431  159.7975 N.am    1  UNL1       -0.2612
      5 C         141.0319  138.3746  160.8837 C.2     1  UNL1        0.3072
      6 O         139.7126  137.7480  160.5418 O.2     1  UNL1       -0.2523
      7 N         141.4868  138.4328  162.3118 N.am    1  UNL1       -0.2640
      8 C         140.6225  137.8644  163.3981 C.3     1  UNL1        0.0954
      9 C         141.0775  137.9226  164.8263 C.3     1  UNL1        0.0307
     10 C         142.3967  138.5492  165.1681 C.3     1  UNL1        0.0801
     11 C         143.2610  139.1177  164.0819 C.3     1  UNL1        0.0307
     12 C         142.8061  139.0595  162.6538 C.3     1  UNL1        0.0954
     13 C         141.4412  138.8849  158.3693 C.3     1  UNL1        0.1123
     14 C         142.3055  139.4533  157.2831 C.3     1  UNL1        0.0939
     15 C         142.8517  138.6074  166.5963 C.2     1  UNL1        0.2253
     16 O         144.1819  138.0325  166.9837 O.2     1  UNL1       -0.2749
     17 N         140.9686  140.0671  169.3313 N.am    1  UNL1       -0.2796
     18 C         140.0361  140.3363  168.3794 C.3     1  UNL1        0.0933
     19 C         139.8400  140.3939  168.1845 C.3     1  UNL1        0.0199
     20 C         141.1133  139.6965  167.8073 C.3     1  UNL1        0.0018
     21 C         142.1439  139.3982  168.8555 C.3     1  UNL1        0.0018
     22 C         141.9012  139.7973  170.2809 C.3     1  UNL1        0.0199
     23 C         140.6280  140.4947  170.6581 C.3     1  UNL1        0.0018
     24 C         139.5974  140.7930  169.6099 C.3     1  UNL1        0.0018
     25 C         140.8752  140.0933  169.2323 C.3     1  UNL1        0.0933
     26 C         144.9835  142.0611  156.6359 C.3     1  UNL1        0.0173
     27 C         144.4890  140.6484  156.5388 C.3     1  UNL1        0.0577
     28 C         144.8588  139.8040  155.3555 C.3     1  UNL1        0.0173
@<TRIPOS>BOND
     1    26    27    1
     2    27    28    1
     3    27     1    1
     4     1     2    1
     5     2     3    1
     6     3     4    1
     7     4     5   am
     8     5     6    2
     9     5     7   am
    10     7     8    1
    11     8     9    1
    12     9    10    1
    13    10    15    1
    14    15    16    2
    15    15    17   am
    16    17    18    1
    17    18    19    1
    18    19    20    1
    19    20    21    1
    20    21    22    1
    21    22    23    1
    22    23    24    1
    23    22    25    1
    24    10    11    1
    25    11    12    1
    26     4    13    1
    27    13    14    1
    28    14     1    1
    29    12     7    1
    30    25    17    1
    31    24    19    1
@<TRIPOS>MOLECULE
*****
 28 31 0 0 0
SMALL
GASTEIGER

@<TRIPOS>ATOM
      1 N         142.3353  143.7386  157.9828 N.3     1  UNL1       -0.2711
      2 C         142.2433  142.7804  159.1332 C.3     1  UNL1        0.0939
      3 C         141.5959  143.2092  160.4165 C.3     1  UNL1        0.1123
      4 N         141.0405  144.5962  160.5496 N.am    1  UNL1       -0.2612
      5 C         140.3932  145.0250  161.8329 C.2     1  UNL1        0.3072
      6 O         139.8378  146.4120  161.9660 O.2     1  UNL1       -0.2523
      7 N         140.3012  144.0668  162.9833 N.am    1  UNL1       -0.2640
      8 C         139.6538  144.4956  164.2667 C.3     1  UNL1        0.0954
      9 C         139.5619  143.5373  165.4170 C.3     1  UNL1        0.0307
     10 C         140.1173  142.1503  165.2840 C.3     1  UNL1        0.0801
     11 C         140.7646  141.7215  164.0006 C.3     1  UNL1        0.0307
     12 C         140.8566  142.6797  162.8503 C.3     1  UNL1        0.0954
     13 C         141.1325  145.5544  159.3992 C.3     1  UNL1        0.1123
     14 C         141.7799  145.1256  158.1159 C.3     1  UNL1        0.0939
     15 C         140.0253  141.1921  166.4344 C.2     1  UNL1        0.2253
     16 O         138.9234  140.1752  166.4772 O.2     1  UNL1       -0.2749
     17 N         142.3071  141.0846  169.2519 N.am    1  UNL1       -0.2796
     18 C         142.9300  142.1180  168.6256 C.3     1  UNL1        0.0933
     19 C         143.0621  142.3329  168.4984 C.3     1  UNL1        0.0199
     20 C         141.8429  141.7119  167.8837 C.3     1  UNL1        0.0018
     21 C         141.1537  140.5716  168.5726 C.3     1  UNL1        0.0018
     22 C         141.6836  140.0523  169.8762 C.3     1  UNL1        0.0199
     23 C         142.9028  140.6732  170.4909 C.3     1  UNL1        0.0018
     24 C         143.5921  141.8135  169.8020 C.3     1  UNL1        0.0018
     25 C         142.3687  141.1899  169.1860 C.3     1  UNL1        0.0933
     26 C         144.1403  142.3563  156.7254 C.3     1  UNL1        0.0173
     27 C         142.9827  143.3098  156.6995 C.3     1  UNL1        0.0577
     28 C         142.4725  143.8346  155.3902 C.3     1  UNL1        0.0173
@<TRIPOS>BOND
     1    26    27    1
     2    27    28    1
     3    27     1    1
     4     1     2    1
     5     2     3    1
     6     3     4    1
     7     4     5   am
     8     5     6    2
     9     5     7   am
    10     7     8    1
    11     8     9    1
    12     9    10    1
    13    10    15    1
    14    15    16    2
    15    15    17   am
    16    17    18    1
    17    18    19    1
    18    19    20    1
    19    20    21    1
    20    21    22    1
    21    22    23    1
    22    23    24    1
    23    22    25    1
    24    10    11    1
    25    11    12    1
    26     4    13    1
    27    13    14    1
    28    14     1    1
    29    12     7    1
    30    25    17    1
    31    24    19    1
@<TRIPOS>MOLECULE
*****
 28 31 0 0 0
SMALL
GASTEIGER

@<TRIPOS>ATOM
      1 N         143.8883  141.8384  162.9379 N.3     1  UNL1       -0.2711
      2 C         143.3445  140.5604  162.3715 C.3     1  UNL1        0.0939
      3 C         143.4391  140.2925  160.8987 C.3     1  UNL1        0.1123
      4 N         144.0775  141.3027  159.9922 N.am    1  UNL1       -0.2612
      5 C         144.1721  141.0349  158.5193 C.2     1  UNL1        0.3072
      6 O         144.8105  142.0451  157.6128 O.2     1  UNL1       -0.2523
      7 N         143.6282  139.7569  157.9530 N.am    1  UNL1       -0.2640
      8 C         143.7228  139.4890  156.4801 C.3     1  UNL1        0.0954
      9 C         143.1789  138.2109  155.9138 C.3     1  UNL1        0.0307
     10 C         142.5405  137.2007  156.8203 C.3     1  UNL1        0.0801
     11 C         142.4459  137.4685  158.2931 C.3     1  UNL1        0.0307
     12 C         142.9898  138.7466  158.8595 C.3     1  UNL1        0.0954
     13 C         144.6214  142.5808  160.5585 C.3     1  UNL1        0.1123
     14 C         144.5268  142.8486  162.0314 C.3     1  UNL1        0.0939
     15 C         141.9966  135.9227  156.2539 C.2     1  UNL1        0.2253
     16 O         140.8046  135.9529  155.3440 O.2     1  UNL1       -0.2749
     17 N         143.3392  132.6146  156.8955 N.am    1  UNL1       -0.2796
     18 C         144.2464  133.2700  157.6674 C.3     1  UNL1        0.0933
     19 C         144.4366  133.4026  157.8287 C.3     1  UNL1        0.0199
     20 C         143.3741  134.1754  157.1050 C.3     1  UNL1        0.0018
     21 C         142.3719  133.4550  156.2527 C.3     1  UNL1        0.0018
     22 C         142.4322  131.9617  156.1241 C.3     1  UNL1        0.0199
     23 C         143.4946  131.1889  156.8478 C.3     1  UNL1        0.0018
     24 C         144.4969  131.9093  157.7001 C.3     1  UNL1        0.0018
     25 C         143.4305  132.6839  156.9736 C.3     1  UNL1        0.0933
     26 C         143.3775  141.0108  165.3470 C.3     1  UNL1        0.0173
     27 C         143.7937  142.1062  164.4107 C.3     1  UNL1        0.0577
     28 C         144.1154  143.4695  164.9473 C.3     1  UNL1        0.0173
@<TRIPOS>BOND
     1    26    27    1
     2    27    28    1
     3    27     1    1
     4     1     2    1
     5     2     3    1
     6     3     4    1
     7     4     5   am
     8     5     6    2
     9     5     7   am
    10     7     8    1
    11     8     9    1
    12     9    10    1
    13    10    15    1
    14    15    16    2
    15    15    17   am
    16    17    18    1
    17    18    19    1
    18    19    20    1
    19    20    21    1
    20    21    22    1
    21    22    23    1
    22    23    24    1
    23    22    25    1
    24    10    11    1
    25    11    12    1
    26     4    13    1
    27    13    14    1
    28    14     1    1
    29    12     7    1
    30    25    17    1
    31    24    19    1
@<TRIPOS>MOLECULE
*****
 28 31 0 0 0
SMALL
GASTEIGER

@<TRIPOS>ATOM
      1 N         144.1607  142.3931  158.3631 N.3     1  UNL1       -0.2711
      2 C         143.9445  141.6628  159.6554 C.3     1  UNL1        0.0939
      3 C         142.7450  141.9735  160.5008 C.3     1  UNL1        0.1123
      4 N         141.7617  143.0143  160.0539 N.am    1  UNL1       -0.2612
      5 C         140.5621  143.3249  160.8993 C.2     1  UNL1        0.3072
      6 O         139.5789  144.3657  160.4524 O.2     1  UNL1       -0.2523
      7 N         140.3459  142.5947  162.1916 N.am    1  UNL1       -0.2640
      8 C         139.1464  142.9053  163.0370 C.3     1  UNL1        0.0954
      9 C         138.9302  142.1750  164.3293 C.3     1  UNL1        0.0307
     10 C         139.9135  141.1342  164.7761 C.3     1  UNL1        0.0801
     11 C         141.1130  140.8236  163.9308 C.3     1  UNL1        0.0307
     12 C         141.3293  141.5538  162.6385 C.3     1  UNL1        0.0954
     13 C         141.9779  143.7445  158.7617 C.3     1  UNL1        0.1123
     14 C         143.1774  143.4339  157.9163 C.3     1  UNL1        0.0939
     15 C         139.6973  140.4040  166.0684 C.2     1  UNL1        0.2253
     16 O         139.2339  138.9774  166.0553 O.2     1  UNL1       -0.2749
     17 N         140.2070  141.8094  169.3733 N.am    1  UNL1       -0.2796
     18 C         140.5622  142.9367  168.7015 C.3     1  UNL1        0.0933
     19 C         140.6366  143.1728  168.5655 C.3     1  UNL1        0.0199
     20 C         140.2264  141.9471  167.8043 C.3     1  UNL1        0.0018
     21 C         139.8340  140.7019  168.5428 C.3     1  UNL1        0.0018
     22 C         139.8519  140.6824  170.0426 C.3     1  UNL1        0.0199
     23 C         140.2621  141.9080  170.8038 C.3     1  UNL1        0.0018
     24 C         140.6545  143.1532  170.0653 C.3     1  UNL1        0.0018
     25 C         140.2428  141.9230  169.3023 C.3     1  UNL1        0.0933
     26 C         146.6188  142.8823  157.6789 C.3     1  UNL1        0.0173
     27 C         145.3602  142.0824  157.5177 C.3     1  UNL1        0.0577
     28 C         145.3011  140.9720  156.5111 C.3     1  UNL1        0.0173
@<TRIPOS>BOND
     1    26    27    1
     2    27    28    1
     3    27     1    1
     4     1     2    1
     5     2     3    1
     6     3     4    1
     7     4     5   am
     8     5     6    2
     9     5     7   am
    10     7     8    1
    11     8     9    1
    12     9    10    1
    13    10    15    1
    14    15    16    2
    15    15    17   am
    16    17    18    1
    17    18    19    1
    18    19    20    1
    19    20    21    1
    20    21    22    1
    21    22    23    1
    22    23    24    1
    23    22    25    1
    24    10    11    1
    25    11    12    1
    26     4    13    1
    27    13    14    1
    28    14     1    1
    29    12     7    1
    30    25    17    1
    31    24    19    1
