@<TRIPOS>MOLECULE
*****
 36 40 0 0 0
SMALL
GASTEIGER

@<TRIPOS>ATOM
      1 N         141.3772  142.1001  163.7430 N.ar    1  UNL1       -0.3052
      2 C         141.5522  140.8252  162.9723 C.ar    1  UNL1        0.0757
      3 C         141.3528  141.1318  161.5176 C.ar    1  UNL1       -0.0035
      4 C         141.0545  142.5963  161.3892 C.ar    1  UNL1        0.0144
      5 C         140.7711  143.4621  160.1976 C.ar    1  UNL1        0.0126
      6 C         140.5027  144.9264  160.3813 C.ar    1  UNL1        0.0578
      7 CL        140.2193  145.7923  159.1897 Cl      1  UNL1       -0.0822
      8 C         140.5178  145.5248  161.7567 C.ar    1  UNL1        0.0129
      9 C         140.8012  144.6590  162.9483 C.ar    1  UNL1        0.0184
     10 C         141.0696  143.1947  162.7645 C.ar    1  UNL1        0.0638
     11 C         141.7155  142.5606  168.2066 C.ar    1  UNL1       -0.0110
     12 C         142.9206  142.1808  167.3983 C.ar    1  UNL1       -0.0022
     13 C         142.8078  142.0274  165.9104 C.ar    1  UNL1        0.0172
     14 C         141.4900  142.2536  165.2308 C.ar    1  UNL1        0.0640
     15 C         140.2847  142.6334  166.0392 C.ar    1  UNL1        0.0172
     16 C         140.3975  142.7868  167.5270 C.ar    1  UNL1       -0.0022
     17 C         141.8283  142.7140  169.6945 C.3     1  UNL1        0.1359
     18 C         140.6077  142.5836  170.5566 C.2     1  UNL1        0.3216
     19 O         139.6785  143.7494  170.7222 O.2     1  UNL1       -0.2497
     20 C         140.3492  139.9994  170.4848 C.3     1  UNL1        0.2556
     21 O         140.3165  141.2874  171.2530 O.3     1  UNL1       -0.4442
     22 C         141.4369  140.1470  160.3894 C.3     1  UNL1        0.0266
     23 C         140.2083  139.4109  159.9432 C.3     1  UNL1        0.0218
     24 C         140.2924  138.4260  158.8149 C.3     1  UNL1        0.0725
     25 N         141.6049  138.1772  158.1328 N.3     1  UNL1       -0.2712
     26 C         142.8334  138.9132  158.5790 C.3     1  UNL1        0.0725
     27 C         142.7493  139.8981  159.7073 C.3     1  UNL1        0.0218
     28 C         141.6890  137.1923  157.0046 C.3     1  UNL1        0.0939
     29 C         142.8390  136.2320  156.9315 C.3     1  UNL1        0.1123
     30 N         142.5953  134.7959  156.5731 N.am    1  UNL1       -0.2610
     31 C         141.6618  134.2989  155.5094 C.3     1  UNL1        0.1162
     32 C         141.7319  132.8006  155.4943 C.3     1  UNL1        0.1124
     33 N         142.7087  132.3717  156.5488 N.am    1  UNL1       -0.2870
     34 C         143.2424  133.6049  157.2155 C.2     1  UNL1        0.3041
     35 O         144.2467  133.6406  158.3290 O.2     1  UNL1       -0.2526
     36 H         142.9562  131.4437  156.7652 H       1  UNL1        0.1510
@<TRIPOS>BOND
     1    20    21    1
     2    21    18    1
     3    18    19    2
     4    18    17    1
     5    17    11    1
     6    11    12   ar
     7    12    13   ar
     8    13    14   ar
     9    14     1    1
    10     1     2   ar
    11     2     3   ar
    12     3    22    1
    13    22    23    1
    14    23    24    1
    15    24    25    1
    16    25    28    1
    17    28    29    1
    18    29    30    1
    19    30    31    1
    20    31    32    1
    21    32    33    1
    22    33    34   am
    23    34    35    2
    24    25    26    1
    25    26    27    1
    26     3     4   ar
    27     4     5   ar
    28     5     6   ar
    29     6     7    1
    30     6     8   ar
    31     8     9   ar
    32     9    10   ar
    33    14    15   ar
    34    15    16   ar
    35    16    11   ar
    36    10     1   ar
    37    27    22    1
    38    10     4   ar
    39    34    30   am
    40    33    36    1
@<TRIPOS>MOLECULE
*****
 36 40 0 0 0
SMALL
GASTEIGER

@<TRIPOS>ATOM
      1 N         141.1531  140.4405  163.9806 N.ar    1  UNL1       -0.3052
      2 C         141.2605  139.3337  162.9738 C.ar    1  UNL1        0.0757
      3 C         141.1488  139.9391  161.6059 C.ar    1  UNL1       -0.0035
      4 C         140.9725  141.4199  161.7673 C.ar    1  UNL1        0.0144
      5 C         140.8098  142.5262  160.7675 C.ar    1  UNL1        0.0126
      6 C         140.6499  143.9424  161.2353 C.ar    1  UNL1        0.0578
      7 CL        140.4872  145.0487  160.2355 Cl      1  UNL1       -0.0822
      8 C         140.6525  144.2522  162.7030 C.ar    1  UNL1        0.0129
      9 C         140.8152  143.1459  163.7028 C.ar    1  UNL1        0.0184
     10 C         140.9751  141.7298  163.2349 C.ar    1  UNL1        0.0638
     11 C         141.3333  139.9745  168.4528 C.ar    1  UNL1       -0.0110
     12 C         142.5943  139.9243  167.6421 C.ar    1  UNL1       -0.0022
     13 C         142.5342  140.0796  166.1513 C.ar    1  UNL1        0.0172
     14 C         141.2132  140.2851  165.4713 C.ar    1  UNL1        0.0640
     15 C         139.9521  140.3354  166.2820 C.ar    1  UNL1        0.0172
     16 C         140.0122  140.1800  167.7728 C.ar    1  UNL1       -0.0022
     17 C         141.3934  139.8192  169.9435 C.3     1  UNL1        0.1359
     18 C         140.2440  140.2761  170.7921 C.2     1  UNL1        0.3216
     19 O         139.1226  139.3312  171.1076 O.2     1  UNL1       -0.2497
     20 C         140.1196  142.8382  170.3794 C.3     1  UNL1        0.2556
     21 O         140.2161  141.6780  171.3252 O.3     1  UNL1       -0.4442
     22 C         141.2038  139.1944  160.3050 C.3     1  UNL1        0.0266
     23 C         142.5059  138.6307  159.8179 C.3     1  UNL1        0.0218
     24 C         142.5609  137.8860  158.5170 C.3     1  UNL1        0.0725
     25 N         141.3140  137.7049  157.7031 N.3     1  UNL1       -0.2712
     26 C         140.0121  138.2686  158.1902 C.3     1  UNL1        0.0725
     27 C         139.9570  139.0133  159.4911 C.3     1  UNL1        0.0218
     28 C         141.3690  136.9602  156.4022 C.3     1  UNL1        0.0939
     29 C         142.5284  136.0565  156.1040 C.3     1  UNL1        0.1123
     30 N         142.3246  134.5718  156.0388 N.am    1  UNL1       -0.2610
     31 C         141.4059  133.8484  155.0994 C.3     1  UNL1        0.1162
     32 C         141.5172  132.3793  155.3816 C.3     1  UNL1        0.1124
     33 N         142.5048  132.1949  156.4955 N.am    1  UNL1       -0.2870
     34 C         143.0038  133.5499  156.9017 C.2     1  UNL1        0.3041
     35 O         144.0059  133.8332  157.9812 O.2     1  UNL1       -0.2526
     36 H         142.7775  131.3354  156.8906 H       1  UNL1        0.1510
@<TRIPOS>BOND
     1    20    21    1
     2    21    18    1
     3    18    19    2
     4    18    17    1
     5    17    11    1
     6    11    12   ar
     7    12    13   ar
     8    13    14   ar
     9    14     1    1
    10     1     2   ar
    11     2     3   ar
    12     3    22    1
    13    22    23    1
    14    23    24    1
    15    24    25    1
    16    25    28    1
    17    28    29    1
    18    29    30    1
    19    30    31    1
    20    31    32    1
    21    32    33    1
    22    33    34   am
    23    34    35    2
    24    25    26    1
    25    26    27    1
    26     3     4   ar
    27     4     5   ar
    28     5     6   ar
    29     6     7    1
    30     6     8   ar
    31     8     9   ar
    32     9    10   ar
    33    14    15   ar
    34    15    16   ar
    35    16    11   ar
    36    10     1   ar
    37    27    22    1
    38    10     4   ar
    39    34    30   am
    40    33    36    1
@<TRIPOS>MOLECULE
*****
 36 40 0 0 0
SMALL
GASTEIGER

@<TRIPOS>ATOM
      1 N         141.5220  142.1006  164.0513 N.ar    1  UNL1       -0.3052
      2 C         141.6845  140.8420  163.2516 C.ar    1  UNL1        0.0757
      3 C         141.4302  141.1723  161.8107 C.ar    1  UNL1       -0.0035
      4 C         141.1106  142.6351  161.7199 C.ar    1  UNL1        0.0144
      5 C         140.7752  143.5187  160.5551 C.ar    1  UNL1        0.0126
      6 C         140.4966  144.9760  160.7751 C.ar    1  UNL1        0.0578
      7 CL        140.1613  145.8597  159.6103 Cl      1  UNL1       -0.0822
      8 C         140.5534  145.5498  162.1599 C.ar    1  UNL1        0.0129
      9 C         140.8888  144.6662  163.3246 C.ar    1  UNL1        0.0184
     10 C         141.1674  143.2088  163.1046 C.ar    1  UNL1        0.0638
     11 C         142.0127  142.4847  168.5080 C.ar    1  UNL1       -0.0110
     12 C         140.6399  142.4620  167.9038 C.ar    1  UNL1       -0.0022
     13 C         140.4764  142.3339  166.4182 C.ar    1  UNL1        0.0172
     14 C         141.6855  142.2287  165.5369 C.ar    1  UNL1        0.0640
     15 C         143.0583  142.2514  166.1411 C.ar    1  UNL1        0.0172
     16 C         143.2219  142.3794  167.6267 C.ar    1  UNL1       -0.0022
     17 C         142.1762  142.6127  169.9936 C.3     1  UNL1        0.1359
     18 C         141.9071  141.4345  170.8820 C.2     1  UNL1        0.3216
     19 O         140.7565  141.4678  171.8438 O.2     1  UNL1       -0.2497
     20 C         142.3848  139.0519  169.9629 C.3     1  UNL1        0.2556
     21 O         142.7886  140.2231  170.8086 O.3     1  UNL1       -0.4442
     22 C         141.4858  140.2090  160.6623 C.3     1  UNL1        0.0266
     23 C         142.8019  139.6357  160.2272 C.3     1  UNL1        0.0218
     24 C         142.8575  138.6724  159.0788 C.3     1  UNL1        0.0725
     25 N         141.5970  138.2824  158.3653 N.3     1  UNL1       -0.2712
     26 C         140.2809  138.8556  158.8004 C.3     1  UNL1        0.0725
     27 C         140.2254  139.8190  159.9489 C.3     1  UNL1        0.0218
     28 C         141.6525  137.3191  157.2169 C.3     1  UNL1        0.0939
     29 C         142.8976  136.5206  156.9674 C.3     1  UNL1        0.1123
     30 N         142.8115  135.0340  156.7865 N.am    1  UNL1       -0.2610
     31 C         143.5237  134.0028  157.6108 C.3     1  UNL1        0.1162
     32 C         143.1505  132.6491  157.0833 C.3     1  UNL1        0.1124
     33 N         142.2077  132.8437  155.9329 N.am    1  UNL1       -0.2870
     34 C         141.9982  134.3176  155.7495 C.2     1  UNL1        0.3041
     35 O         141.1282  134.9619  154.7113 O.2     1  UNL1       -0.2526
     36 H         141.7984  132.1294  155.3930 H       1  UNL1        0.1510
@<TRIPOS>BOND
     1    20    21    1
     2    21    18    1
     3    18    19    2
     4    18    17    1
     5    17    11    1
     6    11    12   ar
     7    12    13   ar
     8    13    14   ar
     9    14     1    1
    10     1     2   ar
    11     2     3   ar
    12     3    22    1
    13    22    23    1
    14    23    24    1
    15    24    25    1
    16    25    28    1
    17    28    29    1
    18    29    30    1
    19    30    31    1
    20    31    32    1
    21    32    33    1
    22    33    34   am
    23    34    35    2
    24    25    26    1
    25    26    27    1
    26     3     4   ar
    27     4     5   ar
    28     5     6   ar
    29     6     7    1
    30     6     8   ar
    31     8     9   ar
    32     9    10   ar
    33    14    15   ar
    34    15    16   ar
    35    16    11   ar
    36    10     1   ar
    37    27    22    1
    38    10     4   ar
    39    34    30   am
    40    33    36    1
@<TRIPOS>MOLECULE
*****
 36 40 0 0 0
SMALL
GASTEIGER

@<TRIPOS>ATOM
      1 N         140.4269  141.7176  163.6907 N.ar    1  UNL1       -0.3052
      2 C         139.2943  141.6089  162.7132 C.ar    1  UNL1        0.0757
      3 C         139.8579  141.7633  161.3317 C.ar    1  UNL1       -0.0035
      4 C         141.3388  141.9674  161.4554 C.ar    1  UNL1        0.0144
      5 C         142.4125  142.1754  160.4288 C.ar    1  UNL1        0.0126
      6 C         143.8378  142.3551  160.8602 C.ar    1  UNL1        0.0578
      7 CL        144.9116  142.5630  159.8336 Cl      1  UNL1       -0.0822
      8 C         144.1895  142.3268  162.3181 C.ar    1  UNL1        0.0129
      9 C         143.1158  142.1189  163.3447 C.ar    1  UNL1        0.0184
     10 C         141.6905  141.9392  162.9133 C.ar    1  UNL1        0.0638
     11 C         140.0926  141.4294  168.1690 C.ar    1  UNL1       -0.0110
     12 C         140.5776  142.6985  167.5332 C.ar    1  UNL1       -0.0022
     13 C         140.6890  142.7945  166.0404 C.ar    1  UNL1        0.0172
     14 C         140.3154  141.6216  165.1834 C.ar    1  UNL1        0.0640
     15 C         139.8304  140.3524  165.8193 C.ar    1  UNL1        0.0172
     16 C         139.7190  140.2564  167.3120 C.ar    1  UNL1       -0.0022
     17 C         139.9812  141.3334  169.6618 C.3     1  UNL1        0.1359
     18 C         140.3122  140.0463  170.3573 C.2     1  UNL1        0.3216
     19 O         139.2728  139.3540  171.1882 O.2     1  UNL1       -0.2497
     20 C         142.8916  140.3390  170.2528 C.3     1  UNL1        0.2556
     21 O         141.6826  139.4516  170.2219 O.3     1  UNL1       -0.4442
     22 C         139.0777  141.7210  160.0513 C.3     1  UNL1        0.0266
     23 C         138.3409  140.4734  159.6628 C.3     1  UNL1        0.0218
     24 C         137.5607  140.4311  158.3824 C.3     1  UNL1        0.0725
     25 N         137.5171  141.6364  157.4905 N.3     1  UNL1       -0.2712
     26 C         138.2538  142.8839  157.8790 C.3     1  UNL1        0.0725
     27 C         139.0341  142.9262  159.1594 C.3     1  UNL1        0.0218
     28 C         136.7368  141.5941  156.2101 C.3     1  UNL1        0.0939
     29 C         135.8603  140.4159  155.9047 C.3     1  UNL1        0.1123
     30 N         134.3707  140.5352  156.0357 N.am    1  UNL1       -0.2610
     31 C         133.4648  141.3091  155.1246 C.3     1  UNL1        0.1162
     32 C         132.0597  141.1539  155.6266 C.3     1  UNL1        0.1124
     33 N         132.0975  140.2840  156.8481 N.am    1  UNL1       -0.2870
     34 C         133.5257  139.9016  157.1009 C.2     1  UNL1        0.3041
     35 O         134.0218  139.0375  158.2221 O.2     1  UNL1       -0.2526
     36 H         131.3212  140.0118  157.3889 H       1  UNL1        0.1510
@<TRIPOS>BOND
     1    20    21    1
     2    21    18    1
     3    18    19    2
     4    18    17    1
     5    17    11    1
     6    11    12   ar
     7    12    13   ar
     8    13    14   ar
     9    14     1    1
    10     1     2   ar
    11     2     3   ar
    12     3    22    1
    13    22    23    1
    14    23    24    1
    15    24    25    1
    16    25    28    1
    17    28    29    1
    18    29    30    1
    19    30    31    1
    20    31    32    1
    21    32    33    1
    22    33    34   am
    23    34    35    2
    24    25    26    1
    25    26    27    1
    26     3     4   ar
    27     4     5   ar
    28     5     6   ar
    29     6     7    1
    30     6     8   ar
    31     8     9   ar
    32     9    10   ar
    33    14    15   ar
    34    15    16   ar
    35    16    11   ar
    36    10     1   ar
    37    27    22    1
    38    10     4   ar
    39    34    30   am
    40    33    36    1
@<TRIPOS>MOLECULE
*****
 36 40 0 0 0
SMALL
GASTEIGER

@<TRIPOS>ATOM
      1 N         141.5092  142.2418  163.4126 N.ar    1  UNL1       -0.3052
      2 C         141.0564  143.3180  162.4709 C.ar    1  UNL1        0.0757
      3 C         141.1816  142.7923  161.0717 C.ar    1  UNL1       -0.0035
      4 C         141.7118  141.3912  161.1486 C.ar    1  UNL1        0.0144
      5 C         142.0363  140.3812  160.0881 C.ar    1  UNL1        0.0126
      6 C         142.5633  139.0311  160.4745 C.ar    1  UNL1        0.0578
      7 CL        142.8879  138.0210  159.4140 Cl      1  UNL1       -0.0822
      8 C         142.7657  138.6909  161.9213 C.ar    1  UNL1        0.0129
      9 C         142.4412  139.7008  162.9817 C.ar    1  UNL1        0.0184
     10 C         141.9142  141.0510  162.5954 C.ar    1  UNL1        0.0638
     11 C         141.6311  142.5343  167.9015 C.ar    1  UNL1       -0.0110
     12 C         140.3435  142.7706  167.1692 C.ar    1  UNL1       -0.0022
     13 C         140.3029  142.6732  165.6729 C.ar    1  UNL1        0.0172
     14 C         141.5498  142.3393  164.9089 C.ar    1  UNL1        0.0640
     15 C         142.8374  142.1029  165.6413 C.ar    1  UNL1        0.0172
     16 C         142.8780  142.2004  167.1375 C.ar    1  UNL1       -0.0022
     17 C         141.6717  142.6317  169.3978 C.3     1  UNL1        0.1359
     18 C         140.4443  143.0418  170.1563 C.2     1  UNL1        0.3216
     19 O         140.0822  144.4931  170.2689 O.2     1  UNL1       -0.2497
     20 C         139.1650  140.7842  170.0280 C.3     1  UNL1        0.2556
     21 O         139.5789  142.0005  170.8021 O.3     1  UNL1       -0.4442
     22 C         140.8372  143.5369  159.8159 C.3     1  UNL1        0.0266
     23 C         139.7989  142.9908  158.8810 C.3     1  UNL1        0.0218
     24 C         139.4545  143.7354  157.6252 C.3     1  UNL1        0.0725
     25 N         140.1482  145.0261  157.3044 N.3     1  UNL1       -0.2712
     26 C         141.1864  145.5721  158.2393 C.3     1  UNL1        0.0725
     27 C         141.5308  144.8275  159.4950 C.3     1  UNL1        0.0218
     28 C         139.8038  145.7707  156.0486 C.3     1  UNL1        0.0939
     29 C         139.0604  147.0711  156.1279 C.3     1  UNL1        0.1123
     30 N         139.3528  148.1634  155.1422 N.am    1  UNL1       -0.2610
     31 C         140.1411  148.0189  153.8742 C.3     1  UNL1        0.1162
     32 C         140.1836  149.3581  153.1997 C.3     1  UNL1        0.1124
     33 N         139.4216  150.3302  154.0509 N.am    1  UNL1       -0.2870
     34 C         138.9081  149.5918  155.2514 C.2     1  UNL1        0.3041
     35 O         138.0931  150.1788  156.3653 O.2     1  UNL1       -0.2526
     36 H         139.2829  151.2851  153.8559 H       1  UNL1        0.1510
@<TRIPOS>BOND
     1    20    21    1
     2    21    18    1
     3    18    19    2
     4    18    17    1
     5    17    11    1
     6    11    12   ar
     7    12    13   ar
     8    13    14   ar
     9    14     1    1
    10     1     2   ar
    11     2     3   ar
    12     3    22    1
    13    22    23    1
    14    23    24    1
    15    24    25    1
    16    25    28    1
    17    28    29    1
    18    29    30    1
    19    30    31    1
    20    31    32    1
    21    32    33    1
    22    33    34   am
    23    34    35    2
    24    25    26    1
    25    26    27    1
    26     3     4   ar
    27     4     5   ar
    28     5     6   ar
    29     6     7    1
    30     6     8   ar
    31     8     9   ar
    32     9    10   ar
    33    14    15   ar
    34    15    16   ar
    35    16    11   ar
    36    10     1   ar
    37    27    22    1
    38    10     4   ar
    39    34    30   am
    40    33    36    1
@<TRIPOS>MOLECULE
*****
 36 40 0 0 0
SMALL
GASTEIGER

@<TRIPOS>ATOM
      1 N         140.7310  141.1011  164.3064 N.ar    1  UNL1       -0.3052
      2 C         140.7997  140.1771  163.1268 C.ar    1  UNL1        0.0757
      3 C         140.5766  140.9912  161.8868 C.ar    1  UNL1       -0.0035
      4 C         140.3700  142.4182  162.3000 C.ar    1  UNL1        0.0144
      5 C         140.1074  143.6646  161.5079 C.ar    1  UNL1        0.0126
      6 C         139.9402  144.9789  162.2111 C.ar    1  UNL1        0.0578
      7 CL        139.6776  146.2253  161.4189 Cl      1  UNL1       -0.0822
      8 C         140.0357  145.0469  163.7065 C.ar    1  UNL1        0.0129
      9 C         140.2983  143.8005  164.4987 C.ar    1  UNL1        0.0184
     10 C         140.4655  142.4862  163.7955 C.ar    1  UNL1        0.0638
     11 C         141.2336  139.9245  168.6207 C.ar    1  UNL1       -0.0110
     12 C         139.8915  140.3628  168.1143 C.ar    1  UNL1       -0.0022
     13 C         139.7240  140.7550  166.6762 C.ar    1  UNL1        0.0172
     14 C         140.8985  140.7089  165.7445 C.ar    1  UNL1        0.0640
     15 C         142.2408  140.2705  166.2509 C.ar    1  UNL1        0.0172
     16 C         142.4082  139.8783  167.6890 C.ar    1  UNL1       -0.0022
     17 C         141.4011  139.5323  170.0588 C.3     1  UNL1        0.1359
     18 C         140.4143  140.0048  171.0849 C.2     1  UNL1        0.3216
     19 O         139.2002  139.1798  171.3936 O.2     1  UNL1       -0.2497
     20 C         141.0027  142.5347  171.0269 C.3     1  UNL1        0.2556
     21 O         140.6416  141.3024  171.8023 O.3     1  UNL1       -0.4442
     22 C         140.5624  140.4697  160.4804 C.3     1  UNL1        0.0266
     23 C         139.5603  139.4292  160.0763 C.3     1  UNL1        0.0218
     24 C         139.5462  138.9077  158.6699 C.3     1  UNL1        0.0725
     25 N         140.5341  139.4267  157.6677 N.3     1  UNL1       -0.2712
     26 C         141.5362  140.4671  158.0717 C.3     1  UNL1        0.0725
     27 C         141.5503  140.9886  159.4781 C.3     1  UNL1        0.0218
     28 C         140.5200  138.9052  156.2613 C.3     1  UNL1        0.0939
     29 C         140.4031  137.4312  156.0092 C.3     1  UNL1        0.1123
     30 N         141.6350  136.6134  155.7570 N.am    1  UNL1       -0.2610
     31 C         141.8847  135.7407  154.5628 C.3     1  UNL1        0.1162
     32 C         143.2375  135.1126  154.7223 C.3     1  UNL1        0.1124
     33 N         143.8239  135.5972  156.0152 N.am    1  UNL1       -0.2870
     34 C         142.8335  136.5247  156.6546 C.2     1  UNL1        0.3041
     35 O         143.0106  137.2382  157.9620 O.2     1  UNL1       -0.2526
     36 H         144.7042  135.3499  156.3800 H       1  UNL1        0.1510
@<TRIPOS>BOND
     1    20    21    1
     2    21    18    1
     3    18    19    2
     4    18    17    1
     5    17    11    1
     6    11    12   ar
     7    12    13   ar
     8    13    14   ar
     9    14     1    1
    10     1     2   ar
    11     2     3   ar
    12     3    22    1
    13    22    23    1
    14    23    24    1
    15    24    25    1
    16    25    28    1
    17    28    29    1
    18    29    30    1
    19    30    31    1
    20    31    32    1
    21    32    33    1
    22    33    34   am
    23    34    35    2
    24    25    26    1
    25    26    27    1
    26     3     4   ar
    27     4     5   ar
    28     5     6   ar
    29     6     7    1
    30     6     8   ar
    31     8     9   ar
    32     9    10   ar
    33    14    15   ar
    34    15    16   ar
    35    16    11   ar
    36    10     1   ar
    37    27    22    1
    38    10     4   ar
    39    34    30   am
    40    33    36    1
@<TRIPOS>MOLECULE
*****
 36 40 0 0 0
SMALL
GASTEIGER

@<TRIPOS>ATOM
      1 N         142.3026  141.8654  164.1886 N.ar    1  UNL1       -0.3052
      2 C         143.0187  141.2620  163.0168 C.ar    1  UNL1        0.0757
      3 C         142.7044  142.0891  161.8056 C.ar    1  UNL1       -0.0035
      4 C         141.7941  143.2037  162.2287 C.ar    1  UNL1        0.0144
      5 C         141.1593  144.3266  161.4633 C.ar    1  UNL1        0.0126
      6 C         140.2761  145.3112  162.1706 C.ar    1  UNL1        0.0578
      7 CL        139.6412  146.4342  161.4051 Cl      1  UNL1       -0.0822
      8 C         140.0277  145.1730  163.6434 C.ar    1  UNL1        0.0129
      9 C         140.6625  144.0501  164.4089 C.ar    1  UNL1        0.0184
     10 C         141.5457  143.0654  163.7016 C.ar    1  UNL1        0.0638
     11 C         142.4063  140.3428  168.4220 C.ar    1  UNL1       -0.0110
     12 C         142.9295  141.7123  168.1044 C.ar    1  UNL1       -0.0022
     13 C         142.8949  142.2198  166.6933 C.ar    1  UNL1        0.0172
     14 C         142.3372  141.3579  165.5997 C.ar    1  UNL1        0.0640
     15 C         141.8140  139.9883  165.9173 C.ar    1  UNL1        0.0172
     16 C         141.8486  139.4808  167.3284 C.ar    1  UNL1       -0.0022
     17 C         142.4409  139.8353  169.8331 C.3     1  UNL1        0.1359
     18 C         141.3919  140.2710  170.8127 C.2     1  UNL1        0.3216
     19 O         141.7266  141.2808  171.8702 O.2     1  UNL1       -0.2497
     20 C         138.9625  140.3715  169.8976 C.3     1  UNL1        0.2556
     21 O         140.0083  139.6968  170.7349 O.3     1  UNL1       -0.4442
     22 C         143.2115  141.8446  160.4152 C.3     1  UNL1        0.0266
     23 C         144.1254  142.8402  159.7642 C.3     1  UNL1        0.0218
     24 C         144.6324  142.5957  158.3739 C.3     1  UNL1        0.0725
     25 N         144.2257  141.3557  157.6344 N.3     1  UNL1       -0.2712
     26 C         143.3118  140.3601  158.2854 C.3     1  UNL1        0.0725
     27 C         142.8048  140.6046  159.6758 C.3     1  UNL1        0.0218
     28 C         144.7327  141.1112  156.2441 C.3     1  UNL1        0.0939
     29 C         146.2079  141.1141  155.9725 C.3     1  UNL1        0.1123
     30 N         146.7951  142.1232  155.0307 N.am    1  UNL1       -0.2610
     31 C         146.0283  143.1381  154.2358 C.3     1  UNL1        0.1162
     32 C         147.0115  143.9368  153.4323 C.3     1  UNL1        0.1124
     33 N         148.3860  143.4154  153.7307 N.am    1  UNL1       -0.2870
     34 C         148.2523  142.2946  154.7186 C.2     1  UNL1        0.3041
     35 O         149.3780  141.4870  155.2933 O.2     1  UNL1       -0.2526
     36 H         149.2280  143.7501  153.3458 H       1  UNL1        0.1510
@<TRIPOS>BOND
     1    20    21    1
     2    21    18    1
     3    18    19    2
     4    18    17    1
     5    17    11    1
     6    11    12   ar
     7    12    13   ar
     8    13    14   ar
     9    14     1    1
    10     1     2   ar
    11     2     3   ar
    12     3    22    1
    13    22    23    1
    14    23    24    1
    15    24    25    1
    16    25    28    1
    17    28    29    1
    18    29    30    1
    19    30    31    1
    20    31    32    1
    21    32    33    1
    22    33    34   am
    23    34    35    2
    24    25    26    1
    25    26    27    1
    26     3     4   ar
    27     4     5   ar
    28     5     6   ar
    29     6     7    1
    30     6     8   ar
    31     8     9   ar
    32     9    10   ar
    33    14    15   ar
    34    15    16   ar
    35    16    11   ar
    36    10     1   ar
    37    27    22    1
    38    10     4   ar
    39    34    30   am
    40    33    36    1
@<TRIPOS>MOLECULE
*****
 36 40 0 0 0
SMALL
GASTEIGER

@<TRIPOS>ATOM
      1 N         142.0413  140.8228  164.1033 N.ar    1  UNL1       -0.3052
      2 C         143.1121  141.0228  163.0720 C.ar    1  UNL1        0.0757
      3 C         142.4866  140.8644  161.7178 C.ar    1  UNL1       -0.0035
      4 C         141.0294  140.5666  161.9122 C.ar    1  UNL1        0.0144
      5 C         139.9175  140.3155  160.9372 C.ar    1  UNL1        0.0126
      6 C         138.5305  140.0387  161.4365 C.ar    1  UNL1        0.0578
      7 CL        137.4185  139.7876  160.4615 Cl      1  UNL1       -0.0822
      8 C         138.2552  140.0130  162.9108 C.ar    1  UNL1        0.0129
      9 C         139.3671  140.2641  163.8858 C.ar    1  UNL1        0.0184
     10 C         140.7542  140.5409  163.3865 C.ar    1  UNL1        0.0638
     11 C         142.5936  141.0322  168.5644 C.ar    1  UNL1       -0.0110
     12 C         142.0986  139.7671  167.9285 C.ar    1  UNL1       -0.0022
     13 C         141.9145  139.6973  166.4415 C.ar    1  UNL1        0.0172
     14 C         142.2254  140.8926  165.5903 C.ar    1  UNL1        0.0640
     15 C         142.7204  142.1578  166.2263 C.ar    1  UNL1        0.0172
     16 C         142.9045  142.2276  167.7133 C.ar    1  UNL1       -0.0022
     17 C         142.7776  141.1020  170.0514 C.3     1  UNL1        0.1359
     18 C         141.7874  141.8483  170.8955 C.2     1  UNL1        0.3216
     19 O         140.9315  141.1072  171.8794 O.2     1  UNL1       -0.2497
     20 C         140.5163  143.9154  169.9675 C.3     1  UNL1        0.2556
     21 O         141.6533  143.3358  170.7557 O.3     1  UNL1       -0.4442
     22 C         143.1942  140.9830  160.4005 C.3     1  UNL1        0.0266
     23 C         143.9500  142.2346  160.0651 C.3     1  UNL1        0.0218
     24 C         144.6575  142.3532  158.7478 C.3     1  UNL1        0.0725
     25 N         144.6094  141.2202  157.7659 N.3     1  UNL1       -0.2712
     26 C         143.8537  139.9687  158.1014 C.3     1  UNL1        0.0725
     27 C         143.1461  139.8501  159.4187 C.3     1  UNL1        0.0218
     28 C         145.3170  141.3388  156.4486 C.3     1  UNL1        0.0939
     29 C         146.3951  142.3656  156.2663 C.3     1  UNL1        0.1123
     30 N         147.5307  142.1013  155.3225 N.am    1  UNL1       -0.2610
     31 C         148.9520  141.8193  155.7104 C.3     1  UNL1        0.1162
     32 C         149.7442  141.6162  154.4529 C.3     1  UNL1        0.1124
     33 N         148.8124  141.7728  153.2878 N.am    1  UNL1       -0.2870
     34 C         147.4444  142.0726  153.8253 C.2     1  UNL1        0.3041
     35 O         146.2075  142.3032  153.0088 O.2     1  UNL1       -0.2526
     36 H         149.0559  141.6929  152.3373 H       1  UNL1        0.1510
@<TRIPOS>BOND
     1    20    21    1
     2    21    18    1
     3    18    19    2
     4    18    17    1
     5    17    11    1
     6    11    12   ar
     7    12    13   ar
     8    13    14   ar
     9    14     1    1
    10     1     2   ar
    11     2     3   ar
    12     3    22    1
    13    22    23    1
    14    23    24    1
    15    24    25    1
    16    25    28    1
    17    28    29    1
    18    29    30    1
    19    30    31    1
    20    31    32    1
    21    32    33    1
    22    33    34   am
    23    34    35    2
    24    25    26    1
    25    26    27    1
    26     3     4   ar
    27     4     5   ar
    28     5     6   ar
    29     6     7    1
    30     6     8   ar
    31     8     9   ar
    32     9    10   ar
    33    14    15   ar
    34    15    16   ar
    35    16    11   ar
    36    10     1   ar
    37    27    22    1
    38    10     4   ar
    39    34    30   am
    40    33    36    1
@<TRIPOS>MOLECULE
*****
 36 40 0 0 0
SMALL
GASTEIGER

@<TRIPOS>ATOM
      1 N         141.6038  142.1334  164.2678 N.ar    1  UNL1       -0.3052
      2 C         141.8631  140.8832  163.4806 C.ar    1  UNL1        0.0757
      3 C         141.6343  141.1927  162.0308 C.ar    1  UNL1       -0.0035
      4 C         141.2335  142.6341  161.9220 C.ar    1  UNL1        0.0144
      5 C         140.8834  143.4922  160.7427 C.ar    1  UNL1        0.0126
      6 C         140.5144  144.9318  160.9459 C.ar    1  UNL1        0.0578
      7 CL        140.1642  145.7901  159.7666 Cl      1  UNL1       -0.0822
      8 C         140.4956  145.5132  162.3285 C.ar    1  UNL1        0.0129
      9 C         140.8457  144.6551  163.5079 C.ar    1  UNL1        0.0184
     10 C         141.2147  143.2155  163.3046 C.ar    1  UNL1        0.0638
     11 C         141.9350  142.5625  168.7351 C.ar    1  UNL1       -0.0110
     12 C         140.6002  142.7023  168.0651 C.ar    1  UNL1       -0.0022
     13 C         140.4899  142.5592  166.5761 C.ar    1  UNL1        0.0172
     14 C         141.7141  142.2765  165.7569 C.ar    1  UNL1        0.0640
     15 C         143.0490  142.1367  166.4269 C.ar    1  UNL1        0.0172
     16 C         143.1593  142.2798  167.9160 C.ar    1  UNL1       -0.0022
     17 C         142.0453  142.7056  170.2242 C.3     1  UNL1        0.1359
     18 C         141.7327  141.5399  171.1149 C.2     1  UNL1        0.3216
     19 O         140.5813  141.6159  172.0733 O.2     1  UNL1       -0.2497
     20 C         142.2287  139.2141  170.0685 C.3     1  UNL1        0.2556
     21 O         142.5714  140.2981  171.0470 O.3     1  UNL1       -0.4442
     22 C         141.7805  140.2297  160.8900 C.3     1  UNL1        0.0266
     23 C         143.1458  139.8623  160.3889 C.3     1  UNL1        0.0218
     24 C         143.2921  138.8994  159.2481 C.3     1  UNL1        0.0725
     25 N         142.0730  138.3039  158.6084 N.3     1  UNL1       -0.2712
     26 C         140.7078  138.6713  159.1094 C.3     1  UNL1        0.0725
     27 C         140.5615  139.6342  160.2502 C.3     1  UNL1        0.0218
     28 C         142.2193  137.3410  157.4676 C.3     1  UNL1        0.0939
     29 C         141.1199  137.2038  156.4564 C.3     1  UNL1        0.1123
     30 N         141.4082  137.4227  155.0007 N.am    1  UNL1       -0.2610
     31 C         140.7949  138.4787  154.1296 C.3     1  UNL1        0.1162
     32 C         141.3681  138.3327  152.7510 C.3     1  UNL1        0.1124
     33 N         142.3355  137.1865  152.7703 N.am    1  UNL1       -0.2870
     34 C         142.3603  136.6241  154.1606 C.2     1  UNL1        0.3041
     35 O         143.1913  135.4665  154.6286 O.2     1  UNL1       -0.2526
     36 H         142.8618  136.8606  152.0047 H       1  UNL1        0.1510
@<TRIPOS>BOND
     1    20    21    1
     2    21    18    1
     3    18    19    2
     4    18    17    1
     5    17    11    1
     6    11    12   ar
     7    12    13   ar
     8    13    14   ar
     9    14     1    1
    10     1     2   ar
    11     2     3   ar
    12     3    22    1
    13    22    23    1
    14    23    24    1
    15    24    25    1
    16    25    28    1
    17    28    29    1
    18    29    30    1
    19    30    31    1
    20    31    32    1
    21    32    33    1
    22    33    34   am
    23    34    35    2
    24    25    26    1
    25    26    27    1
    26     3     4   ar
    27     4     5   ar
    28     5     6   ar
    29     6     7    1
    30     6     8   ar
    31     8     9   ar
    32     9    10   ar
    33    14    15   ar
    34    15    16   ar
    35    16    11   ar
    36    10     1   ar
    37    27    22    1
    38    10     4   ar
    39    34    30   am
    40    33    36    1
