@<TRIPOS>MOLECULE
*****
 29 31 0 0 0
SMALL
GASTEIGER

@<TRIPOS>ATOM
      1 C         143.4059  140.2701  161.8186 C.ar    1  UNL1        0.0188
      2 C         142.0887  140.7163  162.3804 C.ar    1  UNL1        0.0012
      3 C         141.9014  140.8149  163.8654 C.ar    1  UNL1       -0.0042
      4 C         143.0313  140.4673  164.7886 C.ar    1  UNL1       -0.0225
      5 C         144.3486  140.0211  164.2268 C.ar    1  UNL1       -0.0042
      6 C         144.5359  139.9225  162.7418 C.ar    1  UNL1        0.0012
      7 C         144.1551  139.8757  155.8787 C.3     1  UNL1        0.0539
      8 C         143.9678  139.9743  157.3637 C.ar    1  UNL1        0.0810
      9 N         143.4390  138.7999  158.1325 N.ar    1  UNL1       -0.2508
     10 C         143.2517  138.8985  159.6175 C.ar    1  UNL1        0.0765
     11 C         142.7229  137.7241  160.3864 C.3     1  UNL1        0.0537
     12 C         143.5932  140.1715  160.3336 C.ar    1  UNL1        0.0949
     13 N         144.1221  141.3459  159.5648 N.ar    1  UNL1       -0.2384
     14 C         144.3094  141.2473  158.0798 C.ar    1  UNL1        0.1476
     15 C         144.8382  142.4217  157.3109 C.2     1  UNL1        0.2617
     16 N         143.8880  143.4200  156.7190 N.am    1  UNL1       -0.3240
     17 O         146.3173  142.5978  157.1340 O.2     1  UNL1       -0.2687
     18 H         142.9172  143.3044  156.8351 H       1  UNL1        0.1453
     19 H         144.2351  144.1908  156.2144 H       1  UNL1        0.1453
     20 C         142.8440  140.5659  166.2736 C.3     1  UNL1        0.0223
     21 C         142.8363  141.9092  166.9410 C.3     1  UNL1        0.0044
     22 C         142.6490  142.0078  168.4260 C.3     1  UNL1        0.0007
     23 C         142.4694  140.7631  169.2436 C.3     1  UNL1        0.0056
     24 C         142.4772  139.4198  168.5762 C.3     1  UNL1        0.0007
     25 C         142.6645  139.3212  167.0912 C.3     1  UNL1        0.0044
     26 C         142.2821  140.8617  170.7286 C.3     1  UNL1        0.0417
     27 C         140.9005  140.9475  171.3062 C.2     1  UNL1        0.0503
     28 O         139.8989  139.8686  171.0183 O.co2   1  UNL1       -0.5492
     29 O         140.5204  142.1122  172.1717 O.co2   1  UNL1       -0.5492
@<TRIPOS>UNITY_ATOM_ATTR
28 1
charge -1
@<TRIPOS>BOND
     1     7     8    1
     2     8     9   ar
     3     9    10   ar
     4    10    11    1
     5    10    12   ar
     6    12     1    1
     7     1     2   ar
     8     2     3   ar
     9     3     4   ar
    10    20     4    1
    11    20    21    1
    12    21    22    1
    13    22    23    1
    14    23    26    1
    15    26    27    1
    16    27    28   ar
    17    27    29   ar
    18    23    24    1
    19    24    25    1
    20     4     5   ar
    21     5     6   ar
    22    12    13   ar
    23    13    14   ar
    24    14    15    1
    25    15    16   am
    26    15    17    2
    27    14     8   ar
    28     6     1   ar
    29    25    20    1
    30    16    18    1
    31    16    19    1
@<TRIPOS>MOLECULE
*****
 29 31 0 0 0
SMALL
GASTEIGER

@<TRIPOS>ATOM
      1 C         141.4971  138.9772  161.7705 C.ar    1  UNL1        0.0188
      2 C         141.5218  137.8078  162.7096 C.ar    1  UNL1        0.0012
      3 C         141.3255  138.0232  164.1810 C.ar    1  UNL1       -0.0042
      4 C         141.1045  139.4080  164.7134 C.ar    1  UNL1       -0.0225
      5 C         141.0799  140.5774  163.7743 C.ar    1  UNL1       -0.0042
      6 C         141.2762  140.3620  162.3029 C.ar    1  UNL1        0.0012
      7 C         142.2824  138.1156  155.8849 C.3     1  UNL1        0.0539
      8 C         142.0861  138.3310  157.3563 C.ar    1  UNL1        0.0810
      9 N         143.2741  138.5289  158.2504 N.ar    1  UNL1       -0.2508
     10 C         143.0777  138.7443  159.7218 C.ar    1  UNL1        0.0765
     11 C         144.2658  138.9421  160.6159 C.3     1  UNL1        0.0537
     12 C         141.6934  138.7618  160.2991 C.ar    1  UNL1        0.0949
     13 N         140.5054  138.5640  159.4050 N.ar    1  UNL1       -0.2384
     14 C         140.7018  138.3486  157.9336 C.ar    1  UNL1        0.1476
     15 C         139.5137  138.1507  157.0395 C.2     1  UNL1        0.2617
     16 N         139.1969  136.7858  156.5041 N.am    1  UNL1       -0.3240
     17 O         138.6423  139.3178  156.6808 O.2     1  UNL1       -0.2687
     18 H         139.7688  136.0198  156.7395 H       1  UNL1        0.1453
     19 H         138.4172  136.6559  155.9173 H       1  UNL1        0.1453
     20 C         140.9082  139.6234  166.1848 C.3     1  UNL1        0.0223
     21 C         142.0942  139.6591  167.1024 C.3     1  UNL1        0.0044
     22 C         141.8979  139.8745  168.5738 C.3     1  UNL1        0.0007
     23 C         140.5156  140.0542  169.1276 C.3     1  UNL1        0.0056
     24 C         139.3296  140.0185  168.2100 C.3     1  UNL1        0.0007
     25 C         139.5259  139.8031  166.7386 C.3     1  UNL1        0.0044
     26 C         140.3193  140.2696  170.5990 C.3     1  UNL1        0.0417
     27 C         140.4605  141.6447  171.1811 C.2     1  UNL1        0.0503
     28 O         141.7224  142.0315  171.8941 O.co2   1  UNL1       -0.5492
     29 O         139.3399  142.6333  171.0504 O.co2   1  UNL1       -0.5492
@<TRIPOS>UNITY_ATOM_ATTR
28 1
charge -1
@<TRIPOS>BOND
     1     7     8    1
     2     8     9   ar
     3     9    10   ar
     4    10    11    1
     5    10    12   ar
     6    12     1    1
     7     1     2   ar
     8     2     3   ar
     9     3     4   ar
    10    20     4    1
    11    20    21    1
    12    21    22    1
    13    22    23    1
    14    23    26    1
    15    26    27    1
    16    27    28   ar
    17    27    29   ar
    18    23    24    1
    19    24    25    1
    20     4     5   ar
    21     5     6   ar
    22    12    13   ar
    23    13    14   ar
    24    14    15    1
    25    15    16   am
    26    15    17    2
    27    14     8   ar
    28     6     1   ar
    29    25    20    1
    30    16    18    1
    31    16    19    1
@<TRIPOS>MOLECULE
*****
 29 31 0 0 0
SMALL
GASTEIGER

@<TRIPOS>ATOM
      1 C         139.5662  142.5774  161.5318 C.ar    1  UNL1        0.0188
      2 C         138.3991  142.8749  162.4258 C.ar    1  UNL1        0.0012
      3 C         138.4566  142.5120  163.8801 C.ar    1  UNL1       -0.0042
      4 C         139.6813  141.8516  164.4404 C.ar    1  UNL1       -0.0225
      5 C         140.8485  141.5542  163.5464 C.ar    1  UNL1       -0.0042
      6 C         140.7909  141.9170  162.0921 C.ar    1  UNL1        0.0012
      7 C         139.3360  144.0289  155.7146 C.3     1  UNL1        0.0539
      8 C         139.3935  143.6661  157.1689 C.ar    1  UNL1        0.0810
      9 N         138.8216  142.3618  157.6396 N.ar    1  UNL1       -0.2508
     10 C         138.8791  141.9989  159.0939 C.ar    1  UNL1        0.0765
     11 C         138.3071  140.6945  159.5647 C.3     1  UNL1        0.0537
     12 C         139.5087  142.9403  160.0775 C.ar    1  UNL1        0.0949
     13 N         140.0806  144.2446  159.6067 N.ar    1  UNL1       -0.2384
     14 C         140.0231  144.6075  158.1524 C.ar    1  UNL1        0.1476
     15 C         140.5951  145.9118  157.6817 C.2     1  UNL1        0.2617
     16 N         142.0765  146.1420  157.7297 N.am    1  UNL1       -0.3240
     17 O         139.6856  146.9860  157.1630 O.2     1  UNL1       -0.2687
     18 H         142.6734  145.4370  158.0701 H       1  UNL1        0.1453
     19 H         142.4519  146.9980  157.4207 H       1  UNL1        0.1453
     20 C         139.7389  141.4887  165.8947 C.3     1  UNL1        0.0223
     21 C         139.1843  140.1760  166.3626 C.3     1  UNL1        0.0044
     22 C         139.2418  139.8131  167.8169 C.3     1  UNL1        0.0007
     23 C         139.8540  140.7630  168.8033 C.3     1  UNL1        0.0056
     24 C         140.4086  142.0757  168.3354 C.3     1  UNL1        0.0007
     25 C         140.3510  142.4386  166.8811 C.3     1  UNL1        0.0044
     26 C         139.9115  140.4001  170.2576 C.3     1  UNL1        0.0417
     27 C         140.9260  141.0478  171.1527 C.2     1  UNL1        0.0503
     28 O         142.3592  140.6077  171.1037 O.co2   1  UNL1       -0.5492
     29 O         140.5074  142.1358  172.0967 O.co2   1  UNL1       -0.5492
@<TRIPOS>UNITY_ATOM_ATTR
28 1
charge -1
@<TRIPOS>BOND
     1     7     8    1
     2     8     9   ar
     3     9    10   ar
     4    10    11    1
     5    10    12   ar
     6    12     1    1
     7     1     2   ar
     8     2     3   ar
     9     3     4   ar
    10    20     4    1
    11    20    21    1
    12    21    22    1
    13    22    23    1
    14    23    26    1
    15    26    27    1
    16    27    28   ar
    17    27    29   ar
    18    23    24    1
    19    24    25    1
    20     4     5   ar
    21     5     6   ar
    22    12    13   ar
    23    13    14   ar
    24    14    15    1
    25    15    16   am
    26    15    17    2
    27    14     8   ar
    28     6     1   ar
    29    25    20    1
    30    16    18    1
    31    16    19    1
@<TRIPOS>MOLECULE
*****
 29 31 0 0 0
SMALL
GASTEIGER

@<TRIPOS>ATOM
      1 C         140.7076  139.0063  161.7724 C.ar    1  UNL1        0.0188
      2 C         141.1914  140.3302  162.2854 C.ar    1  UNL1        0.0012
      3 C         141.3154  140.5625  163.7621 C.ar    1  UNL1       -0.0042
      4 C         140.9554  139.4709  164.7259 C.ar    1  UNL1       -0.0225
      5 C         140.4716  138.1470  164.2129 C.ar    1  UNL1       -0.0042
      6 C         140.3477  137.9147  162.7362 C.ar    1  UNL1        0.0012
      7 C         140.2119  138.0771  155.8656 C.3     1  UNL1        0.0539
      8 C         140.3358  138.3094  157.3423 C.ar    1  UNL1        0.0810
      9 N         139.1789  138.8734  158.1125 N.ar    1  UNL1       -0.2508
     10 C         139.3028  139.1057  159.5892 C.ar    1  UNL1        0.0765
     11 C         138.1457  139.6697  160.3594 C.3     1  UNL1        0.0537
     12 C         140.5837  138.7740  160.2957 C.ar    1  UNL1        0.0949
     13 N         141.7407  138.2100  159.5255 N.ar    1  UNL1       -0.2384
     14 C         141.6167  137.9777  158.0488 C.ar    1  UNL1        0.1476
     15 C         142.7738  137.4137  157.2786 C.2     1  UNL1        0.2617
     16 N         142.9782  135.9292  157.2120 N.am    1  UNL1       -0.3240
     17 O         143.7265  138.3342  156.5750 O.2     1  UNL1       -0.2687
     18 H         142.3529  135.3250  157.6738 H       1  UNL1        0.1453
     19 H         143.7376  135.5590  156.7065 H       1  UNL1        0.1453
     20 C         141.0794  139.7032  166.2026 C.3     1  UNL1        0.0223
     21 C         142.4099  139.5471  166.8773 C.3     1  UNL1        0.0044
     22 C         142.5338  139.7794  168.3540 C.3     1  UNL1        0.0007
     23 C         141.3272  140.1678  169.1560 C.3     1  UNL1        0.0056
     24 C         139.9967  140.3238  168.4813 C.3     1  UNL1        0.0007
     25 C         139.8728  140.0915  167.0046 C.3     1  UNL1        0.0044
     26 C         141.4511  140.4001  170.6327 C.3     1  UNL1        0.0417
     27 C         141.3876  141.7950  171.1804 C.2     1  UNL1        0.0503
     28 O         140.3565  142.1501  172.2105 O.co2   1  UNL1       -0.5492
     29 O         142.3550  142.8349  170.6982 O.co2   1  UNL1       -0.5492
@<TRIPOS>UNITY_ATOM_ATTR
28 1
charge -1
@<TRIPOS>BOND
     1     7     8    1
     2     8     9   ar
     3     9    10   ar
     4    10    11    1
     5    10    12   ar
     6    12     1    1
     7     1     2   ar
     8     2     3   ar
     9     3     4   ar
    10    20     4    1
    11    20    21    1
    12    21    22    1
    13    22    23    1
    14    23    26    1
    15    26    27    1
    16    27    28   ar
    17    27    29   ar
    18    23    24    1
    19    24    25    1
    20     4     5   ar
    21     5     6   ar
    22    12    13   ar
    23    13    14   ar
    24    14    15    1
    25    15    16   am
    26    15    17    2
    27    14     8   ar
    28     6     1   ar
    29    25    20    1
    30    16    18    1
    31    16    19    1
@<TRIPOS>MOLECULE
*****
 29 31 0 0 0
SMALL
GASTEIGER

@<TRIPOS>ATOM
      1 C         139.2511  142.4087  161.3184 C.ar    1  UNL1        0.0188
      2 C         138.2685  142.9882  162.2924 C.ar    1  UNL1        0.0012
      3 C         138.4367  142.7436  163.7627 C.ar    1  UNL1       -0.0042
      4 C         139.5875  141.9196  164.2591 C.ar    1  UNL1       -0.0225
      5 C         140.5702  141.3401  163.2852 C.ar    1  UNL1       -0.0042
      6 C         140.4020  141.5847  161.8149 C.ar    1  UNL1        0.0012
      7 C         138.5784  143.3869  155.4371 C.3     1  UNL1        0.0539
      8 C         138.7466  143.1424  156.9074 C.ar    1  UNL1        0.0810
      9 N         139.5820  144.0760  157.7323 N.ar    1  UNL1       -0.2508
     10 C         139.7502  143.8314  159.2026 C.ar    1  UNL1        0.0765
     11 C         140.5857  144.7651  160.0275 C.3     1  UNL1        0.0537
     12 C         139.0830  142.6533  159.8481 C.ar    1  UNL1        0.0949
     13 N         138.2475  141.7197  159.0233 N.ar    1  UNL1       -0.2384
     14 C         138.0793  141.9642  157.5529 C.ar    1  UNL1        0.1476
     15 C         137.2439  141.0306  156.7281 C.2     1  UNL1        0.2617
     16 N         135.8224  141.3836  156.4043 N.am    1  UNL1       -0.3240
     17 O         137.8299  139.7439  156.2270 O.2     1  UNL1       -0.2687
     18 H         135.4378  142.2281  156.7332 H       1  UNL1        0.1453
     19 H         135.2741  140.7708  155.8630 H       1  UNL1        0.1453
     20 C         139.7557  141.6750  165.7295 C.3     1  UNL1        0.0223
     21 C         140.3595  142.7353  166.6019 C.3     1  UNL1        0.0044
     22 C         140.5277  142.4908  168.0722 C.3     1  UNL1        0.0007
     23 C         140.0921  141.1859  168.6702 C.3     1  UNL1        0.0056
     24 C         139.4882  140.1257  167.7977 C.3     1  UNL1        0.0007
     25 C         139.3200  140.3702  166.3274 C.3     1  UNL1        0.0044
     26 C         140.2603  140.9414  170.1405 C.3     1  UNL1        0.0417
     27 C         140.4737  142.0964  171.0733 C.2     1  UNL1        0.0503
     28 O         141.7958  142.2716  171.7599 O.co2   1  UNL1       -0.5492
     29 O         139.3651  143.0763  171.3196 O.co2   1  UNL1       -0.5492
@<TRIPOS>UNITY_ATOM_ATTR
28 1
charge -1
@<TRIPOS>BOND
     1     7     8    1
     2     8     9   ar
     3     9    10   ar
     4    10    11    1
     5    10    12   ar
     6    12     1    1
     7     1     2   ar
     8     2     3   ar
     9     3     4   ar
    10    20     4    1
    11    20    21    1
    12    21    22    1
    13    22    23    1
    14    23    26    1
    15    26    27    1
    16    27    28   ar
    17    27    29   ar
    18    23    24    1
    19    24    25    1
    20     4     5   ar
    21     5     6   ar
    22    12    13   ar
    23    13    14   ar
    24    14    15    1
    25    15    16   am
    26    15    17    2
    27    14     8   ar
    28     6     1   ar
    29    25    20    1
    30    16    18    1
    31    16    19    1
@<TRIPOS>MOLECULE
*****
 29 31 0 0 0
SMALL
GASTEIGER

@<TRIPOS>ATOM
      1 C         142.5568  139.2595  161.5401 C.ar    1  UNL1        0.0188
      2 C         143.5270  138.7200  162.5488 C.ar    1  UNL1        0.0012
      3 C         143.2312  138.8427  164.0142 C.ar    1  UNL1       -0.0042
      4 C         141.9652  139.5049  164.4709 C.ar    1  UNL1       -0.0225
      5 C         140.9949  140.0444  163.4622 C.ar    1  UNL1       -0.0042
      6 C         141.2907  139.9217  161.9968 C.ar    1  UNL1        0.0012
      7 C         143.7400  138.7687  155.6784 C.3     1  UNL1        0.0539
      8 C         143.4442  138.8914  157.1438 C.ar    1  UNL1        0.0810
      9 N         143.9055  140.0997  157.9035 N.ar    1  UNL1       -0.2508
     10 C         143.6097  140.2224  159.3689 C.ar    1  UNL1        0.0765
     11 C         144.0710  141.4308  160.1285 C.3     1  UNL1        0.0537
     12 C         142.8526  139.1368  160.0747 C.ar    1  UNL1        0.0949
     13 N         142.3913  137.9285  159.3150 N.ar    1  UNL1       -0.2384
     14 C         142.6871  137.8058  157.8496 C.ar    1  UNL1        0.1476
     15 C         142.2258  136.5974  157.0900 C.2     1  UNL1        0.2617
     16 N         140.8561  136.5734  156.4788 N.am    1  UNL1       -0.3240
     17 O         143.1341  135.4129  156.9415 O.2     1  UNL1       -0.2687
     18 H         140.2600  137.3508  156.5763 H       1  UNL1        0.1453
     19 H         140.5533  135.7803  155.9803 H       1  UNL1        0.1453
     20 C         141.6694  139.6276  165.9363 C.3     1  UNL1        0.0223
     21 C         142.7692  139.4509  166.9408 C.3     1  UNL1        0.0044
     22 C         142.4734  139.5736  168.4062 C.3     1  UNL1        0.0007
     23 C         141.0778  139.8730  168.8672 C.3     1  UNL1        0.0056
     24 C         139.9779  140.0498  167.8626 C.3     1  UNL1        0.0007
     25 C         140.2737  139.9271  166.3972 C.3     1  UNL1        0.0044
     26 C         140.7820  139.9957  170.3326 C.3     1  UNL1        0.0417
     27 C         140.5662  141.3486  170.9434 C.2     1  UNL1        0.0503
     28 O         141.6349  141.9654  171.7964 O.co2   1  UNL1       -0.5492
     29 O         139.2819  142.0846  170.7014 O.co2   1  UNL1       -0.5492
@<TRIPOS>UNITY_ATOM_ATTR
28 1
charge -1
@<TRIPOS>BOND
     1     7     8    1
     2     8     9   ar
     3     9    10   ar
     4    10    11    1
     5    10    12   ar
     6    12     1    1
     7     1     2   ar
     8     2     3   ar
     9     3     4   ar
    10    20     4    1
    11    20    21    1
    12    21    22    1
    13    22    23    1
    14    23    26    1
    15    26    27    1
    16    27    28   ar
    17    27    29   ar
    18    23    24    1
    19    24    25    1
    20     4     5   ar
    21     5     6   ar
    22    12    13   ar
    23    13    14   ar
    24    14    15    1
    25    15    16   am
    26    15    17    2
    27    14     8   ar
    28     6     1   ar
    29    25    20    1
    30    16    18    1
    31    16    19    1
@<TRIPOS>MOLECULE
*****
 29 31 0 0 0
SMALL
GASTEIGER

@<TRIPOS>ATOM
      1 C         139.2763  140.2401  161.3323 C.ar    1  UNL1        0.0188
      2 C         138.4423  139.3889  162.2431 C.ar    1  UNL1        0.0012
      3 C         138.5685  139.5352  163.7306 C.ar    1  UNL1       -0.0042
      4 C         139.5289  140.5328  164.3072 C.ar    1  UNL1       -0.0225
      5 C         140.3630  141.3840  163.3964 C.ar    1  UNL1       -0.0042
      6 C         140.2367  141.2376  161.9089 C.ar    1  UNL1        0.0012
      7 C         138.7712  139.6548  155.3823 C.3     1  UNL1        0.0539
      8 C         138.8975  139.8011  156.8698 C.ar    1  UNL1        0.0810
      9 N         140.0381  139.1489  157.5934 N.ar    1  UNL1       -0.2508
     10 C         140.1643  139.2952  159.0809 C.ar    1  UNL1        0.0765
     11 C         141.3050  138.6430  159.8045 C.3     1  UNL1        0.0537
     12 C         139.1501  140.0938  159.8448 C.ar    1  UNL1        0.0949
     13 N         138.0095  140.7460  159.1211 N.ar    1  UNL1       -0.2384
     14 C         137.8832  140.5996  157.6336 C.ar    1  UNL1        0.1476
     15 C         136.7425  141.2519  156.9100 C.2     1  UNL1        0.2617
     16 N         136.8224  142.7025  156.5369 N.am    1  UNL1       -0.3240
     17 O         135.5221  140.4534  156.5595 O.2     1  UNL1       -0.2687
     18 H         137.6235  143.2266  156.7670 H       1  UNL1        0.1453
     19 H         136.0738  143.1306  156.0620 H       1  UNL1        0.1453
     20 C         139.6552  140.6791  165.7947 C.3     1  UNL1        0.0223
     21 C         139.0430  139.6550  166.7038 C.3     1  UNL1        0.0044
     22 C         139.1693  139.8013  168.1913 C.3     1  UNL1        0.0007
     23 C         139.9078  140.9718  168.7697 C.3     1  UNL1        0.0056
     24 C         140.5200  141.9959  167.8607 C.3     1  UNL1        0.0007
     25 C         140.3937  141.8495  166.3732 C.3     1  UNL1        0.0044
     26 C         140.0340  141.1181  170.2572 C.3     1  UNL1        0.0417
     27 C         140.3303  142.4610  170.8563 C.2     1  UNL1        0.0503
     28 O         141.7500  142.8695  171.1165 O.co2   1  UNL1       -0.5492
     29 O         139.2069  143.3954  171.1951 O.co2   1  UNL1       -0.5492
@<TRIPOS>UNITY_ATOM_ATTR
28 1
charge -1
@<TRIPOS>BOND
     1     7     8    1
     2     8     9   ar
     3     9    10   ar
     4    10    11    1
     5    10    12   ar
     6    12     1    1
     7     1     2   ar
     8     2     3   ar
     9     3     4   ar
    10    20     4    1
    11    20    21    1
    12    21    22    1
    13    22    23    1
    14    23    26    1
    15    26    27    1
    16    27    28   ar
    17    27    29   ar
    18    23    24    1
    19    24    25    1
    20     4     5   ar
    21     5     6   ar
    22    12    13   ar
    23    13    14   ar
    24    14    15    1
    25    15    16   am
    26    15    17    2
    27    14     8   ar
    28     6     1   ar
    29    25    20    1
    30    16    18    1
    31    16    19    1
@<TRIPOS>MOLECULE
*****
 29 31 0 0 0
SMALL
GASTEIGER

@<TRIPOS>ATOM
      1 C         139.9790  142.4255  164.8535 C.ar    1  UNL1        0.0188
      2 C         141.1581  142.1654  163.9636 C.ar    1  UNL1        0.0012
      3 C         141.1151  142.5775  162.5220 C.ar    1  UNL1       -0.0042
      4 C         139.8929  143.2495  161.9702 C.ar    1  UNL1       -0.0225
      5 C         138.7137  143.5095  162.8600 C.ar    1  UNL1       -0.0042
      6 C         138.7568  143.0975  164.3017 C.ar    1  UNL1        0.0012
      7 C         140.1512  140.7773  170.6201 C.3     1  UNL1        0.0539
      8 C         140.1081  141.1894  169.1785 C.ar    1  UNL1        0.0810
      9 N         139.6746  140.2077  168.1305 N.ar    1  UNL1       -0.2508
     10 C         139.6315  140.6197  166.6888 C.ar    1  UNL1        0.0765
     11 C         139.1980  139.6379  165.6408 C.3     1  UNL1        0.0537
     12 C         140.0220  142.0134  166.2951 C.ar    1  UNL1        0.0949
     13 N         140.4556  142.9951  167.3431 N.ar    1  UNL1       -0.2384
     14 C         140.4986  142.5831  168.7848 C.ar    1  UNL1        0.1476
     15 C         140.9322  143.5648  169.8328 C.2     1  UNL1        0.2617
     16 N         140.0095  144.6705  170.2523 N.am    1  UNL1       -0.3240
     17 O         142.2885  143.4409  170.4612 O.2     1  UNL1       -0.2687
     18 H         139.1192  144.7519  169.8398 H       1  UNL1        0.1453
     19 H         140.2940  145.3148  170.9401 H       1  UNL1        0.1453
     20 C         139.8499  143.6615  160.5285 C.3     1  UNL1        0.0223
     21 C         140.4715  144.9577  160.1000 C.3     1  UNL1        0.0044
     22 C         140.4284  145.3697  158.6584 C.3     1  UNL1        0.0007
     23 C         139.7638  144.4856  157.6452 C.3     1  UNL1        0.0056
     24 C         139.1422  143.1895  158.0737 C.3     1  UNL1        0.0007
     25 C         139.1852  142.7775  159.5153 C.3     1  UNL1        0.0044
     26 C         139.7207  144.8976  156.2035 C.3     1  UNL1        0.0417
     27 C         138.6054  145.7681  155.7053 C.2     1  UNL1        0.0503
     28 O         137.3432  145.1458  155.1857 O.co2   1  UNL1       -0.5492
     29 O         138.7521  147.2607  155.7266 O.co2   1  UNL1       -0.5492
@<TRIPOS>UNITY_ATOM_ATTR
28 1
charge -1
@<TRIPOS>BOND
     1     7     8    1
     2     8     9   ar
     3     9    10   ar
     4    10    11    1
     5    10    12   ar
     6    12     1    1
     7     1     2   ar
     8     2     3   ar
     9     3     4   ar
    10    20     4    1
    11    20    21    1
    12    21    22    1
    13    22    23    1
    14    23    26    1
    15    26    27    1
    16    27    28   ar
    17    27    29   ar
    18    23    24    1
    19    24    25    1
    20     4     5   ar
    21     5     6   ar
    22    12    13   ar
    23    13    14   ar
    24    14    15    1
    25    15    16   am
    26    15    17    2
    27    14     8   ar
    28     6     1   ar
    29    25    20    1
    30    16    18    1
    31    16    19    1
@<TRIPOS>MOLECULE
*****
 29 31 0 0 0
SMALL
GASTEIGER

@<TRIPOS>ATOM
      1 C         139.5347  141.1672  165.1990 C.ar    1  UNL1        0.0188
      2 C         140.4890  140.5571  164.2157 C.ar    1  UNL1        0.0012
      3 C         140.2356  140.6898  162.7433 C.ar    1  UNL1       -0.0042
      4 C         139.0278  141.4326  162.2541 C.ar    1  UNL1       -0.0225
      5 C         138.0734  142.0428  163.2374 C.ar    1  UNL1       -0.0042
      6 C         138.3269  141.9100  164.7098 C.ar    1  UNL1        0.0012
      7 C         140.5484  140.6363  171.0889 C.3     1  UNL1        0.0539
      8 C         140.2950  140.7690  169.6164 C.ar    1  UNL1        0.0810
      9 N         139.4238  139.7714  168.9124 N.ar    1  UNL1       -0.2508
     10 C         139.1704  139.9041  167.4399 C.ar    1  UNL1        0.0765
     11 C         138.2992  138.9063  166.7359 C.3     1  UNL1        0.0537
     12 C         139.7881  141.0345  166.6715 C.ar    1  UNL1        0.0949
     13 N         140.6593  142.0322  167.3755 N.ar    1  UNL1       -0.2384
     14 C         140.9127  141.8994  168.8480 C.ar    1  UNL1        0.1476
     15 C         141.7839  142.8972  169.5520 C.2     1  UNL1        0.2617
     16 N         143.2760  142.7476  169.5155 N.am    1  UNL1       -0.3240
     17 O         141.1630  144.0445  170.2924 O.2     1  UNL1       -0.2687
     18 H         143.6835  141.9946  169.0296 H       1  UNL1        0.1453
     19 H         143.8478  143.4025  169.9776 H       1  UNL1        0.1453
     20 C         138.7744  141.5654  160.7816 C.3     1  UNL1        0.0223
     21 C         139.1756  142.8185  160.0615 C.3     1  UNL1        0.0044
     22 C         138.9222  142.9512  158.5890 C.3     1  UNL1        0.0007
     23 C         138.2675  141.8308  157.8367 C.3     1  UNL1        0.0056
     24 C         137.8663  140.5777  158.5568 C.3     1  UNL1        0.0007
     25 C         138.1197  140.4449  160.0293 C.3     1  UNL1        0.0044
     26 C         138.0141  141.9635  156.3642 C.3     1  UNL1        0.0417
     27 C         136.6911  142.4726  155.8738 C.2     1  UNL1        0.0503
     28 O         136.5208  143.9272  155.5492 O.co2   1  UNL1       -0.5492
     29 O         135.5385  141.5272  155.7079 O.co2   1  UNL1       -0.5492
@<TRIPOS>UNITY_ATOM_ATTR
28 1
charge -1
@<TRIPOS>BOND
     1     7     8    1
     2     8     9   ar
     3     9    10   ar
     4    10    11    1
     5    10    12   ar
     6    12     1    1
     7     1     2   ar
     8     2     3   ar
     9     3     4   ar
    10    20     4    1
    11    20    21    1
    12    21    22    1
    13    22    23    1
    14    23    26    1
    15    26    27    1
    16    27    28   ar
    17    27    29   ar
    18    23    24    1
    19    24    25    1
    20     4     5   ar
    21     5     6   ar
    22    12    13   ar
    23    13    14   ar
    24    14    15    1
    25    15    16   am
    26    15    17    2
    27    14     8   ar
    28     6     1   ar
    29    25    20    1
    30    16    18    1
    31    16    19    1
