@<TRIPOS>MOLECULE
*****
 51 55 0 0 0
SMALL
GASTEIGER

@<TRIPOS>ATOM
      1 N         142.5848  142.0259  160.2046 N.am    1  UNL1       -0.2935
      2 C         143.1082  142.6676  158.9540 C.2     1  UNL1        0.2639
      3 O         142.9583  144.1462  158.7504 O.2     1  UNL1       -0.2685
      4 H         142.6832  141.0555  160.3383 H       1  UNL1        0.1502
      5 C         143.7815  141.8308  157.9068 C.ar    1  UNL1        0.1356
      6 C         143.3873  140.3948  157.7265 C.ar    1  UNL1        0.0383
      7 C         144.0606  139.5580  156.6794 C.ar    1  UNL1        0.0510
      8 C         145.1281  140.1572  155.8127 C.ar    1  UNL1        0.0337
      9 C         145.5223  141.5932  155.9930 C.ar    1  UNL1        0.0826
     10 N         144.8491  142.4300  157.0401 N.ar    1  UNL1       -0.2407
     11 N         143.6663  138.1220  156.4991 N.pl3   1  UNL1       -0.3074
     12 C         142.6457  137.5046  157.4085 C.3     1  UNL1        0.0913
     13 C         142.2514  136.0686  157.2282 C.3     1  UNL1        0.0305
     14 C         142.8778  135.2501  156.1385 C.3     1  UNL1        0.0801
     15 C         143.8985  135.8675  155.2291 C.3     1  UNL1        0.0305
     16 C         144.2927  137.3034  155.4094 C.3     1  UNL1        0.0913
     17 C         142.4836  133.8141  155.9582 C.2     1  UNL1        0.2253
     18 O         141.2920  133.4634  155.1174 O.2     1  UNL1       -0.2749
     19 N         143.2809  132.7288  156.6187 N.am    1  UNL1       -0.2795
     20 C         143.0089  131.2563  156.5300 C.3     1  UNL1        0.0935
     21 C         144.0503  130.5428  157.3404 C.3     1  UNL1        0.0233
     22 C         144.9659  131.5744  157.9300 C.3     1  UNL1        0.0233
     23 C         144.4904  132.9254  157.4840 C.3     1  UNL1        0.0935
     24 C         146.5899  142.1924  155.1261 C.ar    1  UNL1        0.0177
     25 C         146.2467  143.2926  154.1661 C.ar    1  UNL1        0.0015
     26 C         147.3143  143.8917  153.2993 C.ar    1  UNL1        0.0000
     27 C         148.7250  143.3906  153.3926 C.ar    1  UNL1        0.0000
     28 C         149.0682  142.2904  154.3526 C.ar    1  UNL1        0.0000
     29 C         148.0007  141.6913  155.2194 C.ar    1  UNL1        0.0015
     30 C         141.9115  142.8627  161.2518 C.3     1  UNL1        0.1494
     31 C         142.5414  140.8844  167.8046 C.2     1  UNL1        0.4050
     32 O         141.6963  139.6665  168.0332 O.2     1  UNL1       -0.2262
     33 N         142.5845  141.5237  166.4483 N.am    1  UNL1       -0.2425
     34 C         143.4296  142.7416  166.2197 C.3     1  UNL1        0.1182
     35 C         143.4726  143.3809  164.8634 C.3     1  UNL1        0.1151
     36 N         142.6705  142.8022  163.7358 N.am    1  UNL1       -0.2747
     37 C         142.7136  143.4414  162.3795 C.2     1  UNL1        0.2436
     38 O         143.5587  144.6593  162.1509 O.2     1  UNL1       -0.2731
     39 C         141.8254  141.5842  163.9644 C.3     1  UNL1        0.1151
     40 C         141.7824  140.9450  165.3206 C.3     1  UNL1        0.1182
     41 O         143.3435  141.4631  168.9323 O.3     1  UNL1       -0.4345
     42 C         142.7272  142.4804  169.8463 C.3     1  UNL1        0.2101
     43 C         141.4154  143.1135  169.4879 C.3     1  UNL1        0.0475
     44 C         140.1611  142.6913  170.1939 C.3     1  UNL1        0.0038
     45 C         138.8734  140.4556  169.8884 C.3     1  UNL1        0.0000
     46 C         139.9542  141.2511  170.5585 C.3     1  UNL1        0.0001
     47 C         140.4361  143.1208  161.1712 C.3     1  UNL1        0.0349
     48 C         139.8515  144.3407  161.8195 C.3     1  UNL1        0.0439
     49 C         139.8470  145.6498  161.0873 C.2     1  UNL1        0.0504
     50 O         139.9156  145.6714  159.5889 O.co2   1  UNL1       -0.5492
     51 O         139.7739  146.9373  161.8533 O.co2   1  UNL1       -0.5492
@<TRIPOS>UNITY_ATOM_ATTR
50 1
charge -1
@<TRIPOS>BOND
     1    45    46    1
     2    46    44    1
     3    44    43    1
     4    43    42    1
     5    42    41    1
     6    41    31    1
     7    31    32    2
     8    31    33   am
     9    33    34    1
    10    34    35    1
    11    35    36    1
    12    36    37   am
    13    37    38    2
    14    37    30    1
    15    30    47    1
    16    47    48    1
    17    48    49    1
    18    49    50   ar
    19    49    51   ar
    20    30     1    1
    21     1     2   am
    22     2     3    2
    23     2     5    1
    24     5     6   ar
    25     6     7   ar
    26     7    11    1
    27    11    12    1
    28    12    13    1
    29    13    14    1
    30    14    17    1
    31    17    18    2
    32    17    19   am
    33    19    20    1
    34    20    21    1
    35    21    22    1
    36    22    23    1
    37    14    15    1
    38    15    16    1
    39     7     8   ar
    40     8     9   ar
    41     9    24    1
    42    24    25   ar
    43    25    26   ar
    44    26    27   ar
    45    27    28   ar
    46    28    29   ar
    47     9    10   ar
    48    36    39    1
    49    39    40    1
    50    40    33    1
    51    10     5   ar
    52    16    11    1
    53    29    24   ar
    54    23    19    1
    55     1     4    1
@<TRIPOS>MOLECULE
*****
 51 55 0 0 0
SMALL
GASTEIGER

@<TRIPOS>ATOM
      1 N         141.8747  142.2106  159.3885 N.am    1  UNL1       -0.2935
      2 C         142.8525  142.7874  158.4081 C.2     1  UNL1        0.2639
      3 O         143.0734  144.2700  158.3532 O.2     1  UNL1       -0.2685
      4 H         141.7297  141.2375  159.4246 H       1  UNL1        0.1502
      5 C         143.6094  141.8815  157.4825 C.ar    1  UNL1        0.1356
      6 C         143.2111  140.4414  157.3509 C.ar    1  UNL1        0.0383
      7 C         143.9680  139.5355  156.4254 C.ar    1  UNL1        0.0510
      8 C         145.1230  140.0699  155.6315 C.ar    1  UNL1        0.0337
      9 C         145.5213  141.5100  155.7632 C.ar    1  UNL1        0.0826
     10 N         144.7645  142.4159  156.6887 N.ar    1  UNL1       -0.2407
     11 N         143.5697  138.0954  156.2937 N.pl3   1  UNL1       -0.3074
     12 C         144.4283  137.1485  155.5087 C.3     1  UNL1        0.0913
     13 C         144.0301  135.7084  155.3771 C.3     1  UNL1        0.0305
     14 C         142.7732  135.2151  156.0304 C.3     1  UNL1        0.0801
     15 C         141.9146  136.1619  156.8153 C.3     1  UNL1        0.0305
     16 C         142.3128  137.6021  156.9470 C.3     1  UNL1        0.0913
     17 C         142.3749  133.7749  155.8987 C.2     1  UNL1        0.2253
     18 O         141.1742  133.4005  155.0814 O.2     1  UNL1       -0.2749
     19 N         143.1774  132.7091  156.5843 N.am    1  UNL1       -0.2795
     20 C         142.9022  131.2351  156.5440 C.3     1  UNL1        0.0935
     21 C         143.9508  130.5452  157.3654 C.3     1  UNL1        0.0233
     22 C         144.8741  131.5929  157.9133 C.3     1  UNL1        0.0233
     23 C         144.3961  132.9302  157.4306 C.3     1  UNL1        0.0935
     24 C         146.6765  142.0443  154.9693 C.ar    1  UNL1        0.0177
     25 C         148.0768  141.6287  155.3100 C.ar    1  UNL1        0.0015
     26 C         149.2319  142.1630  154.5161 C.ar    1  UNL1        0.0000
     27 C         148.9866  143.1129  153.3815 C.ar    1  UNL1        0.0000
     28 C         147.5862  143.5285  153.0407 C.ar    1  UNL1        0.0000
     29 C         146.4311  142.9942  153.8346 C.ar    1  UNL1        0.0015
     30 C         141.1178  143.1165  160.3141 C.3     1  UNL1        0.1494
     31 C         140.3040  140.4783  166.6091 C.2     1  UNL1        0.4050
     32 O         139.3516  139.3217  166.5375 O.2     1  UNL1       -0.2262
     33 N         140.6573  141.2372  165.3645 N.am    1  UNL1       -0.2425
     34 C         141.6097  142.3938  165.4362 C.3     1  UNL1        0.1182
     35 C         141.9630  143.1527  164.1915 C.3     1  UNL1        0.1151
     36 N         141.3638  142.7551  162.8751 N.am    1  UNL1       -0.2747
     37 C         141.7170  143.5141  161.6305 C.2     1  UNL1        0.2436
     38 O         142.6695  144.6706  161.7021 O.2     1  UNL1       -0.2731
     39 C         140.4113  141.5986  162.8035 C.3     1  UNL1        0.1151
     40 C         140.0581  140.8396  164.0481 C.3     1  UNL1        0.1182
     41 O         140.9032  140.8759  167.9255 O.3     1  UNL1       -0.4345
     42 C         140.0174  141.1053  169.1141 C.3     1  UNL1        0.2101
     43 C         140.0729  142.4113  169.8499 C.3     1  UNL1        0.0475
     44 C         141.2465  143.3270  169.6650 C.3     1  UNL1        0.0038
     45 C         143.6205  142.2846  169.4979 C.3     1  UNL1        0.0000
     46 C         142.5656  142.9922  170.2957 C.3     1  UNL1        0.0001
     47 C         139.7618  143.6247  159.9233 C.3     1  UNL1        0.0349
     48 C         138.7064  142.6651  159.4591 C.3     1  UNL1        0.0439
     49 C         138.5764  142.3414  158.0002 C.2     1  UNL1        0.0504
     50 O         137.3532  142.7673  157.2435 O.co2   1  UNL1       -0.5492
     51 O         139.6695  141.5918  157.2980 O.co2   1  UNL1       -0.5492
@<TRIPOS>UNITY_ATOM_ATTR
50 1
charge -1
@<TRIPOS>BOND
     1    45    46    1
     2    46    44    1
     3    44    43    1
     4    43    42    1
     5    42    41    1
     6    41    31    1
     7    31    32    2
     8    31    33   am
     9    33    34    1
    10    34    35    1
    11    35    36    1
    12    36    37   am
    13    37    38    2
    14    37    30    1
    15    30    47    1
    16    47    48    1
    17    48    49    1
    18    49    50   ar
    19    49    51   ar
    20    30     1    1
    21     1     2   am
    22     2     3    2
    23     2     5    1
    24     5     6   ar
    25     6     7   ar
    26     7    11    1
    27    11    12    1
    28    12    13    1
    29    13    14    1
    30    14    17    1
    31    17    18    2
    32    17    19   am
    33    19    20    1
    34    20    21    1
    35    21    22    1
    36    22    23    1
    37    14    15    1
    38    15    16    1
    39     7     8   ar
    40     8     9   ar
    41     9    24    1
    42    24    25   ar
    43    25    26   ar
    44    26    27   ar
    45    27    28   ar
    46    28    29   ar
    47     9    10   ar
    48    36    39    1
    49    39    40    1
    50    40    33    1
    51    10     5   ar
    52    16    11    1
    53    29    24   ar
    54    23    19    1
    55     1     4    1
@<TRIPOS>MOLECULE
*****
 51 55 0 0 0
SMALL
GASTEIGER

@<TRIPOS>ATOM
      1 N         141.8683  142.3037  159.4165 N.am    1  UNL1       -0.2935
      2 C         142.8007  142.8859  158.3960 C.2     1  UNL1        0.2639
      3 O         142.9617  144.3734  158.2893 O.2     1  UNL1       -0.2685
      4 H         141.7626  141.3274  159.4865 H       1  UNL1        0.1502
      5 C         143.5722  141.9806  157.4821 C.ar    1  UNL1        0.1356
      6 C         143.1942  140.5337  157.3653 C.ar    1  UNL1        0.0383
      7 C         143.9657  139.6284  156.4514 C.ar    1  UNL1        0.0510
      8 C         145.1151  140.1700  155.6543 C.ar    1  UNL1        0.0337
      9 C         145.4931  141.6169  155.7711 C.ar    1  UNL1        0.0826
     10 N         144.7217  142.5222  156.6849 N.ar    1  UNL1       -0.2407
     11 N         143.5877  138.1815  156.3346 N.pl3   1  UNL1       -0.3074
     12 C         142.4145  137.6485  157.1025 C.3     1  UNL1        0.0913
     13 C         142.0365  136.2016  156.9857 C.3     1  UNL1        0.0305
     14 C         142.8317  135.2877  156.1011 C.3     1  UNL1        0.0801
     15 C         144.0048  135.8208  155.3332 C.3     1  UNL1        0.0305
     16 C         144.3828  137.2676  155.4500 C.3     1  UNL1        0.0913
     17 C         142.4537  133.8409  155.9843 C.2     1  UNL1        0.2253
     18 O         141.2469  133.4429  155.1872 O.2     1  UNL1       -0.2749
     19 N         143.2824  132.7919  156.6646 N.am    1  UNL1       -0.2795
     20 C         143.0293  131.3136  156.6376 C.3     1  UNL1        0.0935
     21 C         144.1003  130.6451  157.4477 C.3     1  UNL1        0.0233
     22 C         145.0153  131.7103  157.9753 C.3     1  UNL1        0.0233
     23 C         144.5098  133.0370  157.4913 C.3     1  UNL1        0.0935
     24 C         146.6426  142.1584  154.9739 C.ar    1  UNL1        0.0177
     25 C         148.0171  141.5862  155.1559 C.ar    1  UNL1        0.0015
     26 C         149.1666  142.1277  154.3588 C.ar    1  UNL1        0.0000
     27 C         148.9415  143.2415  153.3796 C.ar    1  UNL1        0.0000
     28 C         147.5669  143.8138  153.1976 C.ar    1  UNL1        0.0000
     29 C         146.4175  143.2722  153.9947 C.ar    1  UNL1        0.0015
     30 C         141.0967  143.2091  160.3305 C.3     1  UNL1        0.1494
     31 C         139.7524  140.8289  166.6374 C.2     1  UNL1        0.4050
     32 O         138.7052  139.7589  166.5455 O.2     1  UNL1       -0.2262
     33 N         140.2307  141.5189  165.3944 N.am    1  UNL1       -0.2425
     34 C         141.2779  142.5888  165.4863 C.3     1  UNL1        0.1182
     35 C         141.7563  143.2789  164.2433 C.3     1  UNL1        0.1151
     36 N         141.1873  142.8989  162.9084 N.am    1  UNL1       -0.2747
     37 C         141.6656  143.5890  161.6654 C.2     1  UNL1        0.2436
     38 O         142.7129  144.6589  161.7572 O.2     1  UNL1       -0.2731
     39 C         140.1401  141.8290  162.8165 C.3     1  UNL1        0.1151
     40 C         139.6618  141.1390  164.0595 C.3     1  UNL1        0.1182
     41 O         140.3213  141.2088  167.9723 O.3     1  UNL1       -0.4345
     42 C         141.2782  140.2876  168.6694 C.3     1  UNL1        0.2101
     43 C         142.6654  140.0994  168.1305 C.3     1  UNL1        0.0475
     44 C         142.9388  139.0223  167.1231 C.3     1  UNL1        0.0038
     45 C         142.6204  138.4669  164.6052 C.3     1  UNL1        0.0000
     46 C         143.1358  139.3782  165.6793 C.3     1  UNL1        0.0001
     47 C         139.7563  143.7344  159.9095 C.3     1  UNL1        0.0349
     48 C         138.8222  142.8627  159.1235 C.3     1  UNL1        0.0439
     49 C         138.7442  141.3933  159.4146 C.2     1  UNL1        0.0504
     50 O         137.7983  140.8854  160.4622 O.co2   1  UNL1       -0.5492
     51 O         139.6122  140.4318  158.6582 O.co2   1  UNL1       -0.5492
@<TRIPOS>UNITY_ATOM_ATTR
50 1
charge -1
@<TRIPOS>BOND
     1    45    46    1
     2    46    44    1
     3    44    43    1
     4    43    42    1
     5    42    41    1
     6    41    31    1
     7    31    32    2
     8    31    33   am
     9    33    34    1
    10    34    35    1
    11    35    36    1
    12    36    37   am
    13    37    38    2
    14    37    30    1
    15    30    47    1
    16    47    48    1
    17    48    49    1
    18    49    50   ar
    19    49    51   ar
    20    30     1    1
    21     1     2   am
    22     2     3    2
    23     2     5    1
    24     5     6   ar
    25     6     7   ar
    26     7    11    1
    27    11    12    1
    28    12    13    1
    29    13    14    1
    30    14    17    1
    31    17    18    2
    32    17    19   am
    33    19    20    1
    34    20    21    1
    35    21    22    1
    36    22    23    1
    37    14    15    1
    38    15    16    1
    39     7     8   ar
    40     8     9   ar
    41     9    24    1
    42    24    25   ar
    43    25    26   ar
    44    26    27   ar
    45    27    28   ar
    46    28    29   ar
    47     9    10   ar
    48    36    39    1
    49    39    40    1
    50    40    33    1
    51    10     5   ar
    52    16    11    1
    53    29    24   ar
    54    23    19    1
    55     1     4    1
@<TRIPOS>MOLECULE
*****
 51 55 0 0 0
SMALL
GASTEIGER

@<TRIPOS>ATOM
      1 N         141.4124  142.6208  158.4139 N.am    1  UNL1       -0.2935
      2 C         142.8676  142.3083  158.5995 C.2     1  UNL1        0.2639
      3 O         143.6011  142.8350  159.7972 O.2     1  UNL1       -0.2685
      4 H         140.9310  142.2751  157.6278 H       1  UNL1        0.1502
      5 C         143.5895  141.4690  157.5872 C.ar    1  UNL1        0.1356
      6 C         143.1728  140.0463  157.3583 C.ar    1  UNL1        0.0383
      7 C         143.8946  139.2070  156.3461 C.ar    1  UNL1        0.0510
      8 C         145.0330  139.7904  155.5629 C.ar    1  UNL1        0.0337
      9 C         145.4497  141.2130  155.7918 C.ar    1  UNL1        0.0826
     10 N         144.7280  142.0523  156.8040 N.ar    1  UNL1       -0.2407
     11 N         143.4779  137.7843  156.1172 N.pl3   1  UNL1       -0.3074
     12 C         144.3992  136.8382  155.4059 C.3     1  UNL1        0.0913
     13 C         143.9825  135.4155  155.1769 C.3     1  UNL1        0.0305
     14 C         142.6445  134.9390  155.6593 C.3     1  UNL1        0.0801
     15 C         141.7232  135.8852  156.3706 C.3     1  UNL1        0.0305
     16 C         142.1399  137.3078  156.5995 C.3     1  UNL1        0.0913
     17 C         142.2278  133.5164  155.4304 C.2     1  UNL1        0.2253
     18 O         141.1474  133.2016  154.4386 O.2     1  UNL1       -0.2749
     19 N         142.8915  132.4084  156.1932 N.am    1  UNL1       -0.2795
     20 C         142.5824  130.9457  156.0714 C.3     1  UNL1        0.0935
     21 C         143.4808  130.2019  157.0147 C.3     1  UNL1        0.0233
     22 C         144.3452  131.2050  157.7195 C.3     1  UNL1        0.0233
     23 C         143.9810  132.5687  157.2118 C.3     1  UNL1        0.0935
     24 C         146.5883  141.7964  155.0085 C.ar    1  UNL1        0.0177
     25 C         146.3144  142.5920  153.7667 C.ar    1  UNL1        0.0015
     26 C         147.4529  143.1753  152.9835 C.ar    1  UNL1        0.0000
     27 C         148.8653  142.9630  153.4420 C.ar    1  UNL1        0.0000
     28 C         149.1391  142.1673  154.6837 C.ar    1  UNL1        0.0000
     29 C         148.0006  141.5840  155.4670 C.ar    1  UNL1        0.0015
     30 C         140.6905  143.4602  159.4262 C.3     1  UNL1        0.1494
     31 C         139.9881  140.3956  165.5389 C.2     1  UNL1        0.4050
     32 O         141.3314  140.3056  166.2003 O.2     1  UNL1       -0.2262
     33 N         139.8599  141.0265  164.1841 N.am    1  UNL1       -0.2425
     34 C         138.5167  141.1165  163.5227 C.3     1  UNL1        0.1182
     35 C         138.3885  141.7474  162.1679 C.3     1  UNL1        0.1151
     36 N         139.6036  142.2883  161.4744 N.am    1  UNL1       -0.2747
     37 C         139.4754  142.9192  160.1196 C.2     1  UNL1        0.2436
     38 O         138.1322  143.0092  159.4582 O.2     1  UNL1       -0.2731
     39 C         140.9469  142.1983  162.1358 C.3     1  UNL1        0.1151
     40 C         141.0750  141.5674  163.4906 C.3     1  UNL1        0.1182
     41 O         138.7730  139.8547  166.2323 O.3     1  UNL1       -0.4345
     42 C         138.3159  138.4523  165.9596 C.3     1  UNL1        0.2101
     43 C         139.1357  137.5534  165.0821 C.3     1  UNL1        0.0475
     44 C         138.9374  137.5725  163.5953 C.3     1  UNL1        0.0038
     45 C         141.5104  137.6665  163.2483 C.3     1  UNL1        0.0000
     46 C         140.1215  137.6901  162.6822 C.3     1  UNL1        0.0001
     47 C         141.1838  144.8404  159.7450 C.3     1  UNL1        0.0349
     48 C         140.2671  145.8325  160.3972 C.3     1  UNL1        0.0439
     49 C         139.9435  145.7080  161.8566 C.2     1  UNL1        0.0504
     50 O         141.0429  145.7611  162.8757 O.co2   1  UNL1       -0.5492
     51 O         138.5206  145.5305  162.2968 O.co2   1  UNL1       -0.5492
@<TRIPOS>UNITY_ATOM_ATTR
50 1
charge -1
@<TRIPOS>BOND
     1    45    46    1
     2    46    44    1
     3    44    43    1
     4    43    42    1
     5    42    41    1
     6    41    31    1
     7    31    32    2
     8    31    33   am
     9    33    34    1
    10    34    35    1
    11    35    36    1
    12    36    37   am
    13    37    38    2
    14    37    30    1
    15    30    47    1
    16    47    48    1
    17    48    49    1
    18    49    50   ar
    19    49    51   ar
    20    30     1    1
    21     1     2   am
    22     2     3    2
    23     2     5    1
    24     5     6   ar
    25     6     7   ar
    26     7    11    1
    27    11    12    1
    28    12    13    1
    29    13    14    1
    30    14    17    1
    31    17    18    2
    32    17    19   am
    33    19    20    1
    34    20    21    1
    35    21    22    1
    36    22    23    1
    37    14    15    1
    38    15    16    1
    39     7     8   ar
    40     8     9   ar
    41     9    24    1
    42    24    25   ar
    43    25    26   ar
    44    26    27   ar
    45    27    28   ar
    46    28    29   ar
    47     9    10   ar
    48    36    39    1
    49    39    40    1
    50    40    33    1
    51    10     5   ar
    52    16    11    1
    53    29    24   ar
    54    23    19    1
    55     1     4    1
@<TRIPOS>MOLECULE
*****
 51 55 0 0 0
SMALL
GASTEIGER

@<TRIPOS>ATOM
      1 N         140.7264  144.7901  159.4077 N.am    1  UNL1       -0.2935
      2 C         140.2449  143.8613  158.3328 C.2     1  UNL1        0.2639
      3 O         140.5103  142.3888  158.4397 O.2     1  UNL1       -0.2685
      4 H         140.5522  145.7565  159.3376 H       1  UNL1        0.1502
      5 C         139.4981  144.4049  157.1509 C.ar    1  UNL1        0.1356
      6 C         139.7795  145.7942  156.6603 C.ar    1  UNL1        0.0383
      7 C         139.0327  146.3378  155.4785 C.ar    1  UNL1        0.0510
      8 C         138.0045  145.4922  154.7873 C.ar    1  UNL1        0.0337
      9 C         137.7231  144.1029  155.2780 C.ar    1  UNL1        0.0826
     10 N         138.4699  143.5593  156.4598 N.ar    1  UNL1       -0.2407
     11 N         139.3141  147.7271  154.9878 N.pl3   1  UNL1       -0.3074
     12 C         140.1753  147.9350  153.7774 C.3     1  UNL1        0.0913
     13 C         140.4567  149.3242  153.2868 C.3     1  UNL1        0.0305
     14 C         139.8769  150.5056  154.0065 C.3     1  UNL1        0.0801
     15 C         139.0157  150.2978  155.2169 C.3     1  UNL1        0.0305
     16 C         138.7343  148.9085  155.7076 C.3     1  UNL1        0.0913
     17 C         140.1583  151.8949  153.5158 C.2     1  UNL1        0.2253
     18 O         139.0846  152.6755  152.8175 O.2     1  UNL1       -0.2749
     19 N         141.5134  152.5035  153.7235 N.am    1  UNL1       -0.2795
     20 C         141.9399  153.8748  153.2902 C.3     1  UNL1        0.0935
     21 C         143.3702  154.0666  153.6999 C.3     1  UNL1        0.0233
     22 C         143.8276  152.8137  154.3863 C.3     1  UNL1        0.0233
     23 C         142.6801  151.8478  154.4010 C.3     1  UNL1        0.0935
     24 C         136.6949  143.2573  154.5868 C.ar    1  UNL1        0.0177
     25 C         135.9399  142.2151  155.3573 C.ar    1  UNL1        0.0015
     26 C         134.9117  141.3696  154.6661 C.ar    1  UNL1        0.0000
     27 C         134.6386  141.5662  153.2043 C.ar    1  UNL1        0.0000
     28 C         135.3936  142.6084  152.4338 C.ar    1  UNL1        0.0000
     29 C         136.4218  143.4539  153.1250 C.ar    1  UNL1        0.0015
     30 C         141.4732  144.2464  160.5896 C.3     1  UNL1        0.1494
     31 C         138.4777  139.4579  164.5071 C.2     1  UNL1        0.4050
     32 O         138.4792  138.1505  163.7718 O.2     1  UNL1       -0.2262
     33 N         139.0765  140.6771  163.8707 N.am    1  UNL1       -0.2425
     34 C         139.0750  141.9844  164.6060 C.3     1  UNL1        0.1182
     35 C         139.6738  143.2036  163.9696 C.3     1  UNL1        0.1151
     36 N         140.2741  143.1154  162.5978 N.am    1  UNL1       -0.2747
     37 C         140.8729  144.3346  161.9614 C.2     1  UNL1        0.2436
     38 O         140.8714  145.6420  162.6968 O.2     1  UNL1       -0.2731
     39 C         140.2756  141.8081  161.8625 C.3     1  UNL1        0.1151
     40 C         139.6768  140.5889  162.4989 C.3     1  UNL1        0.1182
     41 O         137.8775  139.5460  165.8789 O.3     1  UNL1       -0.4345
     42 C         138.6772  139.1249  167.0760 C.3     1  UNL1        0.2101
     43 C         139.7416  140.0293  167.6229 C.3     1  UNL1        0.0475
     44 C         139.9420  140.1411  169.1052 C.3     1  UNL1        0.0038
     45 C         142.4628  139.5632  168.8577 C.3     1  UNL1        0.0000
     46 C         141.2457  139.7251  169.7194 C.3     1  UNL1        0.0001
     47 C         142.8203  143.6146  160.3996 C.3     1  UNL1        0.0349
     48 C         143.4306  142.8032  161.5038 C.3     1  UNL1        0.0439
     49 C         144.2842  143.4704  162.5412 C.2     1  UNL1        0.0504
     50 O         144.3026  144.9665  162.6483 O.co2   1  UNL1       -0.5492
     51 O         145.1194  142.6416  163.4715 O.co2   1  UNL1       -0.5492
@<TRIPOS>UNITY_ATOM_ATTR
50 1
charge -1
@<TRIPOS>BOND
     1    45    46    1
     2    46    44    1
     3    44    43    1
     4    43    42    1
     5    42    41    1
     6    41    31    1
     7    31    32    2
     8    31    33   am
     9    33    34    1
    10    34    35    1
    11    35    36    1
    12    36    37   am
    13    37    38    2
    14    37    30    1
    15    30    47    1
    16    47    48    1
    17    48    49    1
    18    49    50   ar
    19    49    51   ar
    20    30     1    1
    21     1     2   am
    22     2     3    2
    23     2     5    1
    24     5     6   ar
    25     6     7   ar
    26     7    11    1
    27    11    12    1
    28    12    13    1
    29    13    14    1
    30    14    17    1
    31    17    18    2
    32    17    19   am
    33    19    20    1
    34    20    21    1
    35    21    22    1
    36    22    23    1
    37    14    15    1
    38    15    16    1
    39     7     8   ar
    40     8     9   ar
    41     9    24    1
    42    24    25   ar
    43    25    26   ar
    44    26    27   ar
    45    27    28   ar
    46    28    29   ar
    47     9    10   ar
    48    36    39    1
    49    39    40    1
    50    40    33    1
    51    10     5   ar
    52    16    11    1
    53    29    24   ar
    54    23    19    1
    55     1     4    1
@<TRIPOS>MOLECULE
*****
 51 55 0 0 0
SMALL
GASTEIGER

@<TRIPOS>ATOM
      1 N         141.1342  142.4492  158.7540 N.am    1  UNL1       -0.2935
      2 C         142.5922  142.7218  158.5306 C.2     1  UNL1        0.2639
      3 O         143.2620  143.8554  159.2491 O.2     1  UNL1       -0.2685
      4 H         140.6947  141.7051  158.2824 H       1  UNL1        0.1502
      5 C         143.3805  141.8607  157.5887 C.ar    1  UNL1        0.1356
      6 C         143.0344  140.4096  157.4312 C.ar    1  UNL1        0.0383
      7 C         143.8227  139.5485  156.4893 C.ar    1  UNL1        0.0510
      8 C         144.9570  140.1385  155.7049 C.ar    1  UNL1        0.0337
      9 C         145.3030  141.5895  155.8624 C.ar    1  UNL1        0.0826
     10 N         144.5148  142.4506  156.8043 N.ar    1  UNL1       -0.2407
     11 N         143.4766  138.0975  156.3319 N.pl3   1  UNL1       -0.3074
     12 C         144.3539  137.2024  155.5080 C.3     1  UNL1        0.0913
     13 C         144.0079  135.7514  155.3505 C.3     1  UNL1        0.0305
     14 C         142.7844  135.1955  156.0169 C.3     1  UNL1        0.0801
     15 C         141.9071  136.0907  156.8408 C.3     1  UNL1        0.0305
     16 C         142.2531  137.5417  156.9983 C.3     1  UNL1        0.0913
     17 C         142.4384  133.7445  155.8595 C.2     1  UNL1        0.2253
     18 O         141.2780  133.3392  154.9997 O.2     1  UNL1       -0.2749
     19 N         143.2527  132.6987  156.5618 N.am    1  UNL1       -0.2795
     20 C         143.0277  131.2170  156.4994 C.3     1  UNL1        0.0935
     21 C         144.0709  130.5536  157.3489 C.3     1  UNL1        0.0233
     22 C         144.9407  131.6253  157.9363 C.3     1  UNL1        0.0233
     23 C         144.4350  132.9511  157.4498 C.3     1  UNL1        0.0935
     24 C         146.4374  142.1794  155.0779 C.ar    1  UNL1        0.0177
     25 C         146.1794  143.2965  154.1108 C.ar    1  UNL1        0.0015
     26 C         147.3137  143.8863  153.3264 C.ar    1  UNL1        0.0000
     27 C         148.7061  143.3590  153.5091 C.ar    1  UNL1        0.0000
     28 C         148.9640  142.2419  154.4763 C.ar    1  UNL1        0.0000
     29 C         147.8297  141.6521  155.2607 C.ar    1  UNL1        0.0015
     30 C         140.3459  143.3103  159.6959 C.3     1  UNL1        0.1494
     31 C         140.9135  139.9068  165.6410 C.2     1  UNL1        0.4050
     32 O         142.3615  139.8255  166.0239 O.2     1  UNL1       -0.2262
     33 N         140.5104  140.6038  164.3754 N.am    1  UNL1       -0.2425
     34 C         139.0624  140.6852  163.9926 C.3     1  UNL1        0.1182
     35 C         138.6593  141.3822  162.7270 C.3     1  UNL1        0.1151
     36 N         139.7042  141.9977  161.8443 N.am    1  UNL1       -0.2747
     37 C         139.3011  142.6947  160.5787 C.2     1  UNL1        0.2436
     38 O         137.8531  142.7761  160.1958 O.2     1  UNL1       -0.2731
     39 C         141.1522  141.9164  162.2271 C.3     1  UNL1        0.1151
     40 C         141.5553  141.2194  163.4927 C.3     1  UNL1        0.1182
     41 O         139.8686  139.2913  166.5238 O.3     1  UNL1       -0.4345
     42 C         139.4986  139.9499  167.8196 C.3     1  UNL1        0.2101
     43 C         140.5095  140.0552  168.9229 C.3     1  UNL1        0.0475
     44 C         141.1046  141.3877  169.2702 C.3     1  UNL1        0.0038
     45 C         140.5312  143.8673  169.7923 C.3     1  UNL1        0.0000
     46 C         140.3672  142.6494  168.9322 C.3     1  UNL1        0.0001
     47 C         140.6026  144.7870  159.7551 C.3     1  UNL1        0.0349
     48 C         141.0190  145.4247  161.0474 C.3     1  UNL1        0.0439
     49 C         140.0364  145.5472  162.1741 C.2     1  UNL1        0.0504
     50 O         140.4820  145.3112  163.5869 O.co2   1  UNL1       -0.5492
     51 O         138.6082  145.9056  161.8881 O.co2   1  UNL1       -0.5492
@<TRIPOS>UNITY_ATOM_ATTR
50 1
charge -1
@<TRIPOS>BOND
     1    45    46    1
     2    46    44    1
     3    44    43    1
     4    43    42    1
     5    42    41    1
     6    41    31    1
     7    31    32    2
     8    31    33   am
     9    33    34    1
    10    34    35    1
    11    35    36    1
    12    36    37   am
    13    37    38    2
    14    37    30    1
    15    30    47    1
    16    47    48    1
    17    48    49    1
    18    49    50   ar
    19    49    51   ar
    20    30     1    1
    21     1     2   am
    22     2     3    2
    23     2     5    1
    24     5     6   ar
    25     6     7   ar
    26     7    11    1
    27    11    12    1
    28    12    13    1
    29    13    14    1
    30    14    17    1
    31    17    18    2
    32    17    19   am
    33    19    20    1
    34    20    21    1
    35    21    22    1
    36    22    23    1
    37    14    15    1
    38    15    16    1
    39     7     8   ar
    40     8     9   ar
    41     9    24    1
    42    24    25   ar
    43    25    26   ar
    44    26    27   ar
    45    27    28   ar
    46    28    29   ar
    47     9    10   ar
    48    36    39    1
    49    39    40    1
    50    40    33    1
    51    10     5   ar
    52    16    11    1
    53    29    24   ar
    54    23    19    1
    55     1     4    1
@<TRIPOS>MOLECULE
*****
 51 55 0 0 0
SMALL
GASTEIGER

@<TRIPOS>ATOM
      1 N         141.1621  142.7706  157.8611 N.am    1  UNL1       -0.2935
      2 C         142.6248  143.0522  157.6846 C.2     1  UNL1        0.2639
      3 O         143.2124  144.3268  158.2140 O.2     1  UNL1       -0.2685
      4 H         140.7765  141.9341  157.5136 H       1  UNL1        0.1502
      5 C         143.5000  142.0592  156.9788 C.ar    1  UNL1        0.1356
      6 C         143.1125  140.6106  156.9425 C.ar    1  UNL1        0.0383
      7 C         143.9876  139.6176  156.2367 C.ar    1  UNL1        0.0510
      8 C         145.2501  140.0733  155.5672 C.ar    1  UNL1        0.0337
      9 C         145.6376  141.5219  155.6035 C.ar    1  UNL1        0.0826
     10 N         144.7625  142.5149  156.3093 N.ar    1  UNL1       -0.2407
     11 N         143.6001  138.1690  156.2005 N.pl3   1  UNL1       -0.3074
     12 C         144.4083  137.1964  155.3938 C.3     1  UNL1        0.0913
     13 C         144.0209  135.7478  155.3575 C.3     1  UNL1        0.0305
     14 C         142.8252  135.2717  156.1280 C.3     1  UNL1        0.0801
     15 C         142.0170  136.2443  156.9347 C.3     1  UNL1        0.0305
     16 C         142.4045  137.6929  156.9709 C.3     1  UNL1        0.0913
     17 C         142.4377  133.8230  156.0917 C.2     1  UNL1        0.2253
     18 O         141.1802  133.4003  155.3918 O.2     1  UNL1       -0.2749
     19 N         143.3078  132.7971  156.7554 N.am    1  UNL1       -0.2795
     20 C         143.0508  131.3200  156.8016 C.3     1  UNL1        0.0935
     21 C         144.1718  130.6781  157.5643 C.3     1  UNL1        0.0233
     22 C         145.1216  131.7586  157.9893 C.3     1  UNL1        0.0233
     23 C         144.5876  133.0682  157.4894 C.3     1  UNL1        0.0935
     24 C         146.9002  141.9775  154.9339 C.ar    1  UNL1        0.0177
     25 C         148.2295  141.4876  155.4268 C.ar    1  UNL1        0.0015
     26 C         149.4920  141.9432  154.7572 C.ar    1  UNL1        0.0000
     27 C         149.4253  142.8888  153.5947 C.ar    1  UNL1        0.0000
     28 C         148.0960  143.3788  153.1018 C.ar    1  UNL1        0.0000
     29 C         146.8335  142.9232  153.7714 C.ar    1  UNL1        0.0015
     30 C         140.2870  143.7636  158.5669 C.3     1  UNL1        0.1494
     31 C         142.0293  142.9373  165.1647 C.2     1  UNL1        0.4050
     32 O         143.4833  143.2648  165.3333 O.2     1  UNL1       -0.2262
     33 N         141.3900  143.0371  163.8115 N.am    1  UNL1       -0.2425
     34 C         139.9359  142.7097  163.6429 C.3     1  UNL1        0.1182
     35 C         139.2967  142.8094  162.2896 C.3     1  UNL1        0.1151
     36 N         140.1115  143.2367  161.1049 N.am    1  UNL1       -0.2747
     37 C         139.4722  143.3364  159.7516 C.2     1  UNL1        0.2436
     38 O         138.0181  143.0090  159.5830 O.2     1  UNL1       -0.2731
     39 C         141.5655  143.5641  161.2735 C.3     1  UNL1        0.1151
     40 C         142.2048  143.4643  162.6268 C.3     1  UNL1        0.1182
     41 O         141.2145  142.5101  166.3494 O.3     1  UNL1       -0.4345
     42 C         141.8676  141.7784  167.4844 C.3     1  UNL1        0.2101
     43 C         141.3062  140.4693  167.9547 C.3     1  UNL1        0.0475
     44 C         139.8295  140.3217  168.1732 C.3     1  UNL1        0.0038
     45 C         138.7483  139.9341  165.8428 C.3     1  UNL1        0.0000
     46 C         139.0152  139.4709  167.2443 C.3     1  UNL1        0.0001
     47 C         140.2267  145.1839  158.0880 C.3     1  UNL1        0.0349
     48 C         139.7486  145.4873  156.6989 C.3     1  UNL1        0.0439
     49 C         139.6568  146.9095  156.2312 C.2     1  UNL1        0.0504
     50 O         138.8208  147.8964  156.9910 O.co2   1  UNL1       -0.5492
     51 O         140.4010  147.3449  155.0038 O.co2   1  UNL1       -0.5492
@<TRIPOS>UNITY_ATOM_ATTR
50 1
charge -1
@<TRIPOS>BOND
     1    45    46    1
     2    46    44    1
     3    44    43    1
     4    43    42    1
     5    42    41    1
     6    41    31    1
     7    31    32    2
     8    31    33   am
     9    33    34    1
    10    34    35    1
    11    35    36    1
    12    36    37   am
    13    37    38    2
    14    37    30    1
    15    30    47    1
    16    47    48    1
    17    48    49    1
    18    49    50   ar
    19    49    51   ar
    20    30     1    1
    21     1     2   am
    22     2     3    2
    23     2     5    1
    24     5     6   ar
    25     6     7   ar
    26     7    11    1
    27    11    12    1
    28    12    13    1
    29    13    14    1
    30    14    17    1
    31    17    18    2
    32    17    19   am
    33    19    20    1
    34    20    21    1
    35    21    22    1
    36    22    23    1
    37    14    15    1
    38    15    16    1
    39     7     8   ar
    40     8     9   ar
    41     9    24    1
    42    24    25   ar
    43    25    26   ar
    44    26    27   ar
    45    27    28   ar
    46    28    29   ar
    47     9    10   ar
    48    36    39    1
    49    39    40    1
    50    40    33    1
    51    10     5   ar
    52    16    11    1
    53    29    24   ar
    54    23    19    1
    55     1     4    1
@<TRIPOS>MOLECULE
*****
 51 55 0 0 0
SMALL
GASTEIGER

@<TRIPOS>ATOM
      1 N         142.6523  141.4823  158.6805 N.am    1  UNL1       -0.2935
      2 C         142.9117  140.0142  158.5156 C.2     1  UNL1        0.2639
      3 O         144.0844  139.3781  159.2011 O.2     1  UNL1       -0.2685
      4 H         141.8826  141.8999  158.2305 H       1  UNL1        0.1502
      5 C         141.9982  139.1821  157.6650 C.ar    1  UNL1        0.1356
      6 C         140.6848  139.7419  157.2052 C.ar    1  UNL1        0.0383
      7 C         139.7714  138.9099  156.3547 C.ar    1  UNL1        0.0510
      8 C         140.1714  137.5181  155.9640 C.ar    1  UNL1        0.0337
      9 C         141.4849  136.9583  156.4237 C.ar    1  UNL1        0.0826
     10 N         142.3983  137.7903  157.2742 N.ar    1  UNL1       -0.2407
     11 N         138.4579  139.4697  155.8950 N.pl3   1  UNL1       -0.3074
     12 C         137.8996  140.7019  156.5432 C.3     1  UNL1        0.0913
     13 C         136.5861  141.2617  156.0834 C.3     1  UNL1        0.0305
     14 C         135.8309  140.5893  154.9755 C.3     1  UNL1        0.0801
     15 C         136.3891  139.3572  154.3274 C.3     1  UNL1        0.0305
     16 C         137.7026  138.7974  154.7871 C.3     1  UNL1        0.0913
     17 C         134.5174  141.1492  154.5158 C.2     1  UNL1        0.2253
     18 O         134.4543  141.9947  153.2785 O.2     1  UNL1       -0.2749
     19 N         133.2669  140.8634  155.2933 N.am    1  UNL1       -0.2795
     20 C         131.8890  141.3518  154.9577 C.3     1  UNL1        0.0935
     21 C         130.9452  140.8293  156.0001 C.3     1  UNL1        0.0233
     22 C         131.7400  140.0178  156.9799 C.3     1  UNL1        0.0233
     23 C         133.1748  140.0389  156.5431 C.3     1  UNL1        0.0935
     24 C         141.8850  135.5664  156.0329 C.ar    1  UNL1        0.0177
     25 C         141.1668  134.8646  154.9186 C.ar    1  UNL1        0.0015
     26 C         141.5669  133.4728  154.5278 C.ar    1  UNL1        0.0000
     27 C         142.6852  132.7828  155.2513 C.ar    1  UNL1        0.0000
     28 C         143.4033  133.4846  156.3656 C.ar    1  UNL1        0.0000
     29 C         143.0033  134.8764  156.7564 C.ar    1  UNL1        0.0015
     30 C         143.5657  142.3144  159.5311 C.3     1  UNL1        0.1494
     31 C         142.8245  139.9848  165.9555 C.2     1  UNL1        0.4050
     32 O         143.2993  138.5634  166.0202 O.2     1  UNL1       -0.2262
     33 N         142.8778  140.7350  164.6577 N.am    1  UNL1       -0.2425
     34 C         142.4031  142.1564  164.5930 C.3     1  UNL1        0.1182
     35 C         142.4564  142.9066  163.2951 C.3     1  UNL1        0.1151
     36 N         142.9844  142.2354  162.0620 N.am    1  UNL1       -0.2747
     37 C         143.0377  142.9856  160.7642 C.2     1  UNL1        0.2436
     38 O         142.5630  144.4070  160.6995 O.2     1  UNL1       -0.2731
     39 C         143.4592  140.8140  162.1267 C.3     1  UNL1        0.1151
     40 C         143.4059  140.0638  163.4246 C.3     1  UNL1        0.1182
     41 O         142.2965  140.6560  167.1886 O.3     1  UNL1       -0.4345
     42 C         142.4378  139.9888  168.5246 C.3     1  UNL1        0.2101
     43 C         143.0544  140.7318  169.6726 C.3     1  UNL1        0.0475
     44 C         143.3118  142.2053  169.5606 C.3     1  UNL1        0.0038
     45 C         141.0251  143.4225  169.7587 C.3     1  UNL1        0.0000
     46 C         142.4154  143.1790  170.2664 C.3     1  UNL1        0.0001
     47 C         145.0072  142.4753  159.1484 C.3     1  UNL1        0.0349
     48 C         145.4101  142.4233  157.7044 C.3     1  UNL1        0.0439
     49 C         146.8143  142.7678  157.3048 C.2     1  UNL1        0.0504
     50 O         147.7446  143.3959  158.2998 O.co2   1  UNL1       -0.5492
     51 O         147.2881  142.4842  155.9102 O.co2   1  UNL1       -0.5492
@<TRIPOS>UNITY_ATOM_ATTR
50 1
charge -1
@<TRIPOS>BOND
     1    45    46    1
     2    46    44    1
     3    44    43    1
     4    43    42    1
     5    42    41    1
     6    41    31    1
     7    31    32    2
     8    31    33   am
     9    33    34    1
    10    34    35    1
    11    35    36    1
    12    36    37   am
    13    37    38    2
    14    37    30    1
    15    30    47    1
    16    47    48    1
    17    48    49    1
    18    49    50   ar
    19    49    51   ar
    20    30     1    1
    21     1     2   am
    22     2     3    2
    23     2     5    1
    24     5     6   ar
    25     6     7   ar
    26     7    11    1
    27    11    12    1
    28    12    13    1
    29    13    14    1
    30    14    17    1
    31    17    18    2
    32    17    19   am
    33    19    20    1
    34    20    21    1
    35    21    22    1
    36    22    23    1
    37    14    15    1
    38    15    16    1
    39     7     8   ar
    40     8     9   ar
    41     9    24    1
    42    24    25   ar
    43    25    26   ar
    44    26    27   ar
    45    27    28   ar
    46    28    29   ar
    47     9    10   ar
    48    36    39    1
    49    39    40    1
    50    40    33    1
    51    10     5   ar
    52    16    11    1
    53    29    24   ar
    54    23    19    1
    55     1     4    1
@<TRIPOS>MOLECULE
*****
 51 55 0 0 0
SMALL
GASTEIGER

@<TRIPOS>ATOM
      1 N         141.4682  143.0536  157.8760 N.am    1  UNL1       -0.2935
      2 C         142.9608  142.9080  157.9065 C.2     1  UNL1        0.2639
      3 O         143.7740  143.7195  158.8709 O.2     1  UNL1       -0.2685
      4 H         140.9345  142.5210  157.2430 H       1  UNL1        0.1502
      5 C         143.6402  141.9508  156.9725 C.ar    1  UNL1        0.1356
      6 C         143.2575  140.5004  156.9760 C.ar    1  UNL1        0.0383
      7 C         143.9369  139.5432  156.0421 C.ar    1  UNL1        0.0510
      8 C         144.9990  140.0364  155.1047 C.ar    1  UNL1        0.0337
      9 C         145.3816  141.4868  155.1012 C.ar    1  UNL1        0.0826
     10 N         144.7023  142.4440  156.0351 N.ar    1  UNL1       -0.2407
     11 N         143.5542  138.0929  156.0457 N.pl3   1  UNL1       -0.3074
     12 C         142.3121  137.6467  156.7584 C.3     1  UNL1        0.0913
     13 C         141.9295  136.1963  156.7619 C.3     1  UNL1        0.0305
     14 C         142.7889  135.1922  156.0527 C.3     1  UNL1        0.0801
     15 C         144.0309  135.6384  155.3399 C.3     1  UNL1        0.0305
     16 C         144.4136  137.0887  155.3364 C.3     1  UNL1        0.0913
     17 C         142.4062  133.7418  156.0562 C.2     1  UNL1        0.2253
     18 O         141.1521  133.2953  155.3649 O.2     1  UNL1       -0.2749
     19 N         143.2776  132.7379  156.7510 N.am    1  UNL1       -0.2795
     20 C         143.0253  131.2618  156.8382 C.3     1  UNL1        0.0935
     21 C         144.1461  130.6454  157.6217 C.3     1  UNL1        0.0233
     22 C         145.0911  131.7406  158.0188 C.3     1  UNL1        0.0233
     23 C         144.5544  133.0338  157.4807 C.3     1  UNL1        0.0935
     24 C         146.4438  141.9799  154.1638 C.ar    1  UNL1        0.0177
     25 C         146.9038  141.1135  153.0291 C.ar    1  UNL1        0.0015
     26 C         147.9659  141.6066  152.0917 C.ar    1  UNL1        0.0000
     27 C         148.5679  142.9663  152.2890 C.ar    1  UNL1        0.0000
     28 C         148.1079  143.8327  153.4237 C.ar    1  UNL1        0.0000
     29 C         147.0458  143.3396  154.3611 C.ar    1  UNL1        0.0015
     30 C         140.7888  144.0108  158.8099 C.3     1  UNL1        0.1494
     31 C         138.4790  138.9260  162.8173 C.2     1  UNL1        0.4050
     32 O         137.7802  137.9082  161.9654 O.2     1  UNL1       -0.2262
     33 N         139.0807  140.1465  162.1862 N.am    1  UNL1       -0.2425
     34 C         139.7795  141.1642  163.0381 C.3     1  UNL1        0.1182
     35 C         140.3812  142.3848  162.4071 C.3     1  UNL1        0.1151
     36 N         140.2841  142.5875  160.9240 N.am    1  UNL1       -0.2747
     37 C         140.8858  143.8081  160.2929 C.2     1  UNL1        0.2436
     38 O         141.5846  144.8258  161.1449 O.2     1  UNL1       -0.2731
     39 C         139.5854  141.5698  160.0721 C.3     1  UNL1        0.1151
     40 C         138.9836  140.3493  160.7032 C.3     1  UNL1        0.1182
     41 O         138.5761  138.7232  164.3003 O.3     1  UNL1       -0.4345
     42 C         139.6331  137.8219  164.8665 C.3     1  UNL1        0.2101
     43 C         140.7170  137.2869  163.9783 C.3     1  UNL1        0.0475
     44 C         142.0210  138.0190  163.8620 C.3     1  UNL1        0.0038
     45 C         141.8486  137.9263  161.2713 C.3     1  UNL1        0.0000
     46 C         142.6165  138.2802  162.5103 C.3     1  UNL1        0.0001
     47 C         140.0123  145.1708  158.2608 C.3     1  UNL1        0.0349
     48 C         140.6654  146.1259  157.3062 C.3     1  UNL1        0.0439
     49 C         140.6032  145.8704  155.8294 C.2     1  UNL1        0.0504
     50 O         140.6577  147.0192  154.8665 O.co2   1  UNL1       -0.5492
     51 O         140.4867  144.4660  155.3156 O.co2   1  UNL1       -0.5492
@<TRIPOS>UNITY_ATOM_ATTR
50 1
charge -1
@<TRIPOS>BOND
     1    45    46    1
     2    46    44    1
     3    44    43    1
     4    43    42    1
     5    42    41    1
     6    41    31    1
     7    31    32    2
     8    31    33   am
     9    33    34    1
    10    34    35    1
    11    35    36    1
    12    36    37   am
    13    37    38    2
    14    37    30    1
    15    30    47    1
    16    47    48    1
    17    48    49    1
    18    49    50   ar
    19    49    51   ar
    20    30     1    1
    21     1     2   am
    22     2     3    2
    23     2     5    1
    24     5     6   ar
    25     6     7   ar
    26     7    11    1
    27    11    12    1
    28    12    13    1
    29    13    14    1
    30    14    17    1
    31    17    18    2
    32    17    19   am
    33    19    20    1
    34    20    21    1
    35    21    22    1
    36    22    23    1
    37    14    15    1
    38    15    16    1
    39     7     8   ar
    40     8     9   ar
    41     9    24    1
    42    24    25   ar
    43    25    26   ar
    44    26    27   ar
    45    27    28   ar
    46    28    29   ar
    47     9    10   ar
    48    36    39    1
    49    39    40    1
    50    40    33    1
    51    10     5   ar
    52    16    11    1
    53    29    24   ar
    54    23    19    1
    55     1     4    1
