@<TRIPOS>MOLECULE
*****
 38 41 0 0 0
SMALL
GASTEIGER

@<TRIPOS>ATOM
      1 N         139.3989  138.5152  163.8492 N.3     1  UNL1       -0.2727
      2 C         140.8677  138.4561  164.1475 C.3     1  UNL1        0.0722
      3 C         141.4367  139.2626  165.2771 C.3     1  UNL1        0.0204
      4 C         140.5368  140.1282  166.1083 C.3     1  UNL1        0.0353
      5 C         139.0679  140.1874  165.8099 C.3     1  UNL1        0.0204
      6 C         138.4990  139.3809  164.6804 C.3     1  UNL1        0.0722
      7 C         141.1058  140.9346  167.2378 C.3     1  UNL1        0.1256
      8 O         140.6960  139.8659  168.2073 O.3     1  UNL1       -0.3786
      9 H         141.1926  139.0536  168.0220 H       1  UNL1        0.2111
     10 C         141.6748  141.7411  168.3674 C.ar    1  UNL1        0.0056
     11 C         143.0636  141.4640  168.8617 C.ar    1  UNL1       -0.0017
     12 C         143.6325  142.2704  169.9912 C.ar    1  UNL1       -0.0002
     13 C         142.8127  143.3540  170.6265 C.ar    1  UNL1       -0.0000
     14 C         141.4238  143.6313  170.1322 C.ar    1  UNL1       -0.0002
     15 C         140.8549  142.8248  169.0026 C.ar    1  UNL1       -0.0017
     16 C         141.5156  142.0034  166.2683 C.ar    1  UNL1        0.0056
     17 C         142.9676  142.2202  165.9607 C.ar    1  UNL1       -0.0017
     18 C         143.3775  143.2889  164.9913 C.ar    1  UNL1       -0.0002
     19 C         142.3353  144.1408  164.3294 C.ar    1  UNL1       -0.0000
     20 C         140.8833  143.9240  164.6370 C.ar    1  UNL1       -0.0002
     21 C         140.4735  142.8553  165.6065 C.ar    1  UNL1       -0.0017
     22 C         138.8299  137.7088  162.7196 C.3     1  UNL1        0.0722
     23 C         137.9485  138.3654  161.6988 C.3     1  UNL1        0.0202
     24 C         138.5292  139.3529  160.7305 C.3     1  UNL1        0.0352
     25 C         139.8505  139.0746  160.0772 C.3     1  UNL1        0.1328
     26 O         139.9091  138.2514  158.8247 O.3     1  UNL1       -0.3801
     27 H         139.0123  137.9802  158.5738 H       1  UNL1        0.2108
     28 C         143.6381  140.7093  161.8749 C.ar    1  UNL1        0.0017
     29 C         142.3564  141.4786  161.9984 C.ar    1  UNL1       -0.0023
     30 C         141.0939  140.9337  161.3992 C.ar    1  UNL1       -0.0022
     31 C         141.1130  139.6195  160.6764 C.ar    1  UNL1        0.0042
     32 C         142.3947  138.8502  160.5529 C.ar    1  UNL1       -0.0022
     33 C         143.6573  139.3951  161.1521 C.ar    1  UNL1       -0.0023
     34 C         144.8921  140.1534  163.4930 C.3     1  UNL1        0.0339
     35 C         144.9007  141.2542  162.4741 C.3     1  UNL1        0.1071
     36 C         144.9092  142.3549  161.4551 C.3     1  UNL1        0.0339
     37 O         146.1632  141.7990  163.0733 O.3     1  UNL1       -0.3827
     38 H         146.8506  141.1148  163.0567 H       1  UNL1        0.2107
@<TRIPOS>BOND
     1    34    35    1
     2    35    36    1
     3    35    37    1
     4    35    28    1
     5    28    29   ar
     6    29    30   ar
     7    30    31   ar
     8    31    25    1
     9    25    26    1
    10    25    24    1
    11    24    23    1
    12    23    22    1
    13    22     1    1
    14     1     2    1
    15     2     3    1
    16     3     4    1
    17     4     7    1
    18     7     8    1
    19     7    10    1
    20    10    11   ar
    21    11    12   ar
    22    12    13   ar
    23    13    14   ar
    24    14    15   ar
    25     7    16    1
    26    16    17   ar
    27    17    18   ar
    28    18    19   ar
    29    19    20   ar
    30    20    21   ar
    31     4     5    1
    32     5     6    1
    33    31    32   ar
    34    32    33   ar
    35    33    28   ar
    36     6     1    1
    37    15    10   ar
    38    21    16   ar
    39    37    38    1
    40    26    27    1
    41     8     9    1
@<TRIPOS>MOLECULE
*****
 38 41 0 0 0
SMALL
GASTEIGER

@<TRIPOS>ATOM
      1 N         138.4676  138.6968  163.1065 N.3     1  UNL1       -0.2727
      2 C         139.4186  137.7882  163.8275 C.3     1  UNL1        0.0722
      3 C         139.9427  138.1715  165.1797 C.3     1  UNL1        0.0204
      4 C         139.5158  139.4635  165.8109 C.3     1  UNL1        0.0353
      5 C         138.5647  140.3723  165.0898 C.3     1  UNL1        0.0204
      6 C         138.0406  139.9889  163.7377 C.3     1  UNL1        0.0722
      7 C         140.0399  139.8469  167.1630 C.3     1  UNL1        0.1256
      8 O         138.8437  139.2108  167.8070 O.3     1  UNL1       -0.3786
      9 H         138.8578  138.2550  167.6422 H       1  UNL1        0.2111
     10 C         140.5640  140.2303  168.5152 C.ar    1  UNL1        0.0056
     11 C         139.8177  141.2244  169.3546 C.ar    1  UNL1       -0.0017
     12 C         140.3418  141.6078  170.7068 C.ar    1  UNL1       -0.0002
     13 C         141.6121  140.9970  171.2195 C.ar    1  UNL1       -0.0000
     14 C         142.3585  140.0027  170.3802 C.ar    1  UNL1       -0.0002
     15 C         141.8344  139.6194  169.0280 C.ar    1  UNL1       -0.0017
     16 C         141.2360  140.4830  166.5191 C.ar    1  UNL1        0.0056
     17 C         141.3938  141.9745  166.5384 C.ar    1  UNL1       -0.0017
     18 C         142.5900  142.6105  165.8945 C.ar    1  UNL1       -0.0002
     19 C         143.6283  141.7551  165.2312 C.ar    1  UNL1       -0.0000
     20 C         143.4705  140.2635  165.2119 C.ar    1  UNL1       -0.0002
     21 C         142.2743  139.6275  165.8558 C.ar    1  UNL1       -0.0017
     22 C         137.9435  138.3135  161.7544 C.3     1  UNL1        0.0722
     23 C         138.8755  138.2429  160.5811 C.3     1  UNL1        0.0202
     24 C         138.9048  139.3581  159.5784 C.3     1  UNL1        0.0352
     25 C         139.8708  140.4931  159.7470 C.3     1  UNL1        0.1328
     26 O         141.0269  140.6406  158.8026 O.3     1  UNL1       -0.3801
     27 H         141.0029  139.9252  158.1480 H       1  UNL1        0.2108
     28 C         139.3009  143.4558  163.0858 C.ar    1  UNL1        0.0017
     29 C         138.2189  143.2578  162.0660 C.ar    1  UNL1       -0.0023
     30 C         138.4089  142.2702  160.9531 C.ar    1  UNL1       -0.0022
     31 C         139.6809  141.4807  160.8599 C.ar    1  UNL1        0.0042
     32 C         140.7629  141.6787  161.8797 C.ar    1  UNL1       -0.0022
     33 C         140.5729  142.6663  162.9927 C.ar    1  UNL1       -0.0023
     34 C         137.7110  143.9446  164.4024 C.3     1  UNL1        0.0339
     35 C         139.1110  144.4434  164.1987 C.3     1  UNL1        0.1071
     36 C         140.5109  144.9421  163.9951 C.3     1  UNL1        0.0339
     37 O         138.9210  145.4309  165.3117 O.3     1  UNL1       -0.3827
     38 H         138.6858  144.9592  166.1259 H       1  UNL1        0.2107
@<TRIPOS>BOND
     1    34    35    1
     2    35    36    1
     3    35    37    1
     4    35    28    1
     5    28    29   ar
     6    29    30   ar
     7    30    31   ar
     8    31    25    1
     9    25    26    1
    10    25    24    1
    11    24    23    1
    12    23    22    1
    13    22     1    1
    14     1     2    1
    15     2     3    1
    16     3     4    1
    17     4     7    1
    18     7     8    1
    19     7    10    1
    20    10    11   ar
    21    11    12   ar
    22    12    13   ar
    23    13    14   ar
    24    14    15   ar
    25     7    16    1
    26    16    17   ar
    27    17    18   ar
    28    18    19   ar
    29    19    20   ar
    30    20    21   ar
    31     4     5    1
    32     5     6    1
    33    31    32   ar
    34    32    33   ar
    35    33    28   ar
    36     6     1    1
    37    15    10   ar
    38    21    16   ar
    39    37    38    1
    40    26    27    1
    41     8     9    1
@<TRIPOS>MOLECULE
*****
 38 41 0 0 0
SMALL
GASTEIGER

@<TRIPOS>ATOM
      1 N         143.6386  138.7019  162.5959 N.3     1  UNL1       -0.2727
      2 C         142.2546  138.5929  163.1637 C.3     1  UNL1        0.0722
      3 C         141.8828  139.3744  164.3889 C.3     1  UNL1        0.0204
      4 C         142.8951  140.2650  165.0462 C.3     1  UNL1        0.0353
      5 C         144.2793  140.3741  164.4783 C.3     1  UNL1        0.0204
      6 C         144.6510  139.5925  163.2532 C.3     1  UNL1        0.0722
      7 C         142.5234  141.0465  166.2713 C.3     1  UNL1        0.1256
      8 O         142.4121  139.7703  167.0517 O.3     1  UNL1       -0.3786
      9 H         143.2842  139.3497  167.1097 H       1  UNL1        0.2111
     10 C         142.1517  141.8281  167.4965 C.ar    1  UNL1        0.0056
     11 C         140.7862  142.4382  167.6112 C.ar    1  UNL1       -0.0017
     12 C         140.4145  143.2198  168.8364 C.ar    1  UNL1       -0.0002
     13 C         141.4082  143.3912  169.9468 C.ar    1  UNL1       -0.0000
     14 C         142.7737  142.7810  169.8321 C.ar    1  UNL1       -0.0002
     15 C         143.1455  141.9994  168.6070 C.ar    1  UNL1       -0.0017
     16 C         142.6347  142.3227  165.4910 C.ar    1  UNL1        0.0056
     17 C         143.9024  143.1231  165.5391 C.ar    1  UNL1       -0.0017
     18 C         144.0137  144.3993  164.7588 C.ar    1  UNL1       -0.0002
     19 C         142.8573  144.8751  163.9303 C.ar    1  UNL1       -0.0000
     20 C         141.5896  144.0748  163.8822 C.ar    1  UNL1       -0.0002
     21 C         141.4783  142.7986  164.6626 C.ar    1  UNL1       -0.0017
     22 C         144.0104  137.9204  161.3707 C.3     1  UNL1        0.0722
     23 C         142.9407  137.4334  160.4386 C.3     1  UNL1        0.0202
     24 C         142.4131  138.3378  159.3646 C.3     1  UNL1        0.0352
     25 C         140.9375  138.5795  159.2455 C.3     1  UNL1        0.1328
     26 O         140.1873  138.0657  158.0526 O.3     1  UNL1       -0.3801
     27 H         140.8003  137.6039  157.4594 H       1  UNL1        0.2108
     28 C         138.7615  140.8460  162.4670 C.ar    1  UNL1        0.0017
     29 C         139.8771  141.5037  161.7101 C.ar    1  UNL1       -0.0023
     30 C         140.6024  140.7482  160.6363 C.ar    1  UNL1       -0.0022
     31 C         140.2122  139.3350  160.3193 C.ar    1  UNL1        0.0042
     32 C         139.0967  138.6773  161.0762 C.ar    1  UNL1       -0.0022
     33 C         138.3713  139.4327  162.1501 C.ar    1  UNL1       -0.0023
     34 C         138.2522  140.4600  164.4898 C.3     1  UNL1        0.0339
     35 C         138.0362  141.6014  163.5409 C.3     1  UNL1        0.1071
     36 C         137.8202  142.7429  162.5919 C.3     1  UNL1        0.0339
     37 O         137.3109  142.3569  164.6147 O.3     1  UNL1       -0.3827
     38 H         137.8930  142.4659  165.3829 H       1  UNL1        0.2107
@<TRIPOS>BOND
     1    34    35    1
     2    35    36    1
     3    35    37    1
     4    35    28    1
     5    28    29   ar
     6    29    30   ar
     7    30    31   ar
     8    31    25    1
     9    25    26    1
    10    25    24    1
    11    24    23    1
    12    23    22    1
    13    22     1    1
    14     1     2    1
    15     2     3    1
    16     3     4    1
    17     4     7    1
    18     7     8    1
    19     7    10    1
    20    10    11   ar
    21    11    12   ar
    22    12    13   ar
    23    13    14   ar
    24    14    15   ar
    25     7    16    1
    26    16    17   ar
    27    17    18   ar
    28    18    19   ar
    29    19    20   ar
    30    20    21   ar
    31     4     5    1
    32     5     6    1
    33    31    32   ar
    34    32    33   ar
    35    33    28   ar
    36     6     1    1
    37    15    10   ar
    38    21    16   ar
    39    37    38    1
    40    26    27    1
    41     8     9    1
@<TRIPOS>MOLECULE
*****
 38 41 0 0 0
SMALL
GASTEIGER

@<TRIPOS>ATOM
      1 N         138.3215  138.8169  163.1818 N.3     1  UNL1       -0.2727
      2 C         139.1486  137.8229  163.9418 C.3     1  UNL1        0.0722
      3 C         139.7120  138.1859  165.2837 C.3     1  UNL1        0.0204
      4 C         139.4484  139.5431  165.8656 C.3     1  UNL1        0.0353
      5 C         138.6212  140.5372  165.1056 C.3     1  UNL1        0.0204
      6 C         138.0578  140.1742  163.7637 C.3     1  UNL1        0.0722
      7 C         140.0119  139.9061  167.2075 C.3     1  UNL1        0.1256
      8 O         138.7936  139.3377  167.8729 O.3     1  UNL1       -0.3786
      9 H         138.7549  138.3816  167.7142 H       1  UNL1        0.2111
     10 C         140.5753  140.2692  168.5494 C.ar    1  UNL1        0.0056
     11 C         141.8471  139.6325  169.0260 C.ar    1  UNL1       -0.0017
     12 C         142.4106  139.9956  170.3679 C.ar    1  UNL1       -0.0002
     13 C         141.7023  140.9953  171.2332 C.ar    1  UNL1       -0.0000
     14 C         140.4304  141.6320  170.7566 C.ar    1  UNL1       -0.0002
     15 C         139.8669  141.2690  169.4147 C.ar    1  UNL1       -0.0017
     16 C         141.2302  140.4745  166.5422 C.ar    1  UNL1        0.0056
     17 C         141.4463  141.9586  166.5149 C.ar    1  UNL1       -0.0017
     18 C         142.6646  142.5270  165.8495 C.ar    1  UNL1       -0.0002
     19 C         143.6668  141.6113  165.2115 C.ar    1  UNL1       -0.0000
     20 C         143.4506  140.1272  165.2388 C.ar    1  UNL1       -0.0002
     21 C         142.2323  139.5588  165.9041 C.ar    1  UNL1       -0.0017
     22 C         137.7580  138.4539  161.8399 C.3     1  UNL1        0.0722
     23 C         138.2052  139.1933  160.6137 C.3     1  UNL1        0.0202
     24 C         139.5378  138.8865  159.9973 C.3     1  UNL1        0.0352
     25 C         140.7772  138.9060  160.8420 C.3     1  UNL1        0.1328
     26 O         141.3899  137.6174  161.3044 O.3     1  UNL1       -0.3801
     27 H         140.8652  136.8723  160.9722 H       1  UNL1        0.2108
     28 C         142.6572  142.8304  161.9887 C.ar    1  UNL1        0.0017
     29 C         143.4002  141.8726  161.1053 C.ar    1  UNL1       -0.0023
     30 C         142.7735  140.5645  160.7230 C.ar    1  UNL1       -0.0022
     31 C         141.4039  140.2141  161.2242 C.ar    1  UNL1        0.0042
     32 C         140.6608  141.1719  162.1076 C.ar    1  UNL1       -0.0022
     33 C         141.2875  142.4801  162.4899 C.ar    1  UNL1       -0.0023
     34 C         141.9210  144.7361  162.5600 C.3     1  UNL1        0.0339
     35 C         143.2838  144.1385  162.3709 C.3     1  UNL1        0.1071
     36 C         144.6466  143.5410  162.1818 C.3     1  UNL1        0.0339
     37 O         143.9105  145.4467  162.7532 O.3     1  UNL1       -0.3827
     38 H         143.6097  145.7026  163.6391 H       1  UNL1        0.2107
@<TRIPOS>BOND
     1    34    35    1
     2    35    36    1
     3    35    37    1
     4    35    28    1
     5    28    29   ar
     6    29    30   ar
     7    30    31   ar
     8    31    25    1
     9    25    26    1
    10    25    24    1
    11    24    23    1
    12    23    22    1
    13    22     1    1
    14     1     2    1
    15     2     3    1
    16     3     4    1
    17     4     7    1
    18     7     8    1
    19     7    10    1
    20    10    11   ar
    21    11    12   ar
    22    12    13   ar
    23    13    14   ar
    24    14    15   ar
    25     7    16    1
    26    16    17   ar
    27    17    18   ar
    28    18    19   ar
    29    19    20   ar
    30    20    21   ar
    31     4     5    1
    32     5     6    1
    33    31    32   ar
    34    32    33   ar
    35    33    28   ar
    36     6     1    1
    37    15    10   ar
    38    21    16   ar
    39    37    38    1
    40    26    27    1
    41     8     9    1
@<TRIPOS>MOLECULE
*****
 38 41 0 0 0
SMALL
GASTEIGER

@<TRIPOS>ATOM
      1 N         139.0624  140.0851  168.0414 N.3     1  UNL1       -0.2727
      2 C         138.2294  139.1063  167.2681 C.3     1  UNL1        0.0722
      3 C         138.0672  139.2663  165.7855 C.3     1  UNL1        0.0204
      4 C         138.7380  140.4051  165.0762 C.3     1  UNL1        0.0353
      5 C         139.5710  141.3840  165.8495 C.3     1  UNL1        0.0204
      6 C         139.7332  141.2240  167.3321 C.3     1  UNL1        0.0722
      7 C         138.5758  140.5651  163.5936 C.3     1  UNL1        0.1256
      8 O         137.3789  141.4407  163.8190 O.3     1  UNL1       -0.3786
      9 H         137.6539  142.2547  164.2693 H       1  UNL1        0.2111
     10 C         138.4136  140.7252  162.1110 C.ar    1  UNL1        0.0056
     11 C         138.0110  139.5506  161.2695 C.ar    1  UNL1       -0.0017
     12 C         137.8488  139.7106  159.7869 C.ar    1  UNL1       -0.0002
     13 C         138.0892  141.0452  159.1458 C.ar    1  UNL1       -0.0000
     14 C         138.4918  142.2199  159.9874 C.ar    1  UNL1       -0.0002
     15 C         138.6540  142.0599  161.4700 C.ar    1  UNL1       -0.0017
     16 C         139.7727  139.6896  163.3682 C.ar    1  UNL1        0.0056
     17 C         141.0030  140.2532  162.7212 C.ar    1  UNL1       -0.0017
     18 C         142.1999  139.3776  162.4958 C.ar    1  UNL1       -0.0002
     19 C         142.1665  137.9385  162.9173 C.ar    1  UNL1       -0.0000
     20 C         140.9361  137.3749  163.5642 C.ar    1  UNL1       -0.0002
     21 C         139.7392  138.2504  163.7897 C.ar    1  UNL1       -0.0017
     22 C         139.2245  139.9250  169.5240 C.3     1  UNL1        0.0722
     23 C         140.0833  140.8853  170.2925 C.3     1  UNL1        0.0202
     24 C         141.4317  140.4541  170.7884 C.3     1  UNL1        0.0352
     25 C         142.3722  139.7307  169.8707 C.3     1  UNL1        0.1328
     26 O         142.9781  138.4257  170.2946 O.3     1  UNL1       -0.3801
     27 H         142.6599  138.1943  171.1812 H       1  UNL1        0.2108
     28 C         143.3760  141.4758  165.8462 C.ar    1  UNL1        0.0017
     29 C         143.3519  142.3561  167.0605 C.ar    1  UNL1       -0.0023
     30 C         143.0173  141.7744  168.4020 C.ar    1  UNL1       -0.0022
     31 C         142.7068  140.3124  168.5292 C.ar    1  UNL1        0.0042
     32 C         142.7310  139.4322  167.3149 C.ar    1  UNL1       -0.0022
     33 C         143.0656  140.0139  165.9734 C.ar    1  UNL1       -0.0023
     34 C         144.8208  141.0609  164.3494 C.3     1  UNL1        0.0339
     35 C         143.7106  142.0576  164.5047 C.3     1  UNL1        0.1071
     36 C         142.6004  143.0542  164.6599 C.3     1  UNL1        0.0339
     37 O         144.0452  142.6393  163.1631 O.3     1  UNL1       -0.3827
     38 H         143.9866  141.9466  162.4866 H       1  UNL1        0.2107
@<TRIPOS>BOND
     1    34    35    1
     2    35    36    1
     3    35    37    1
     4    35    28    1
     5    28    29   ar
     6    29    30   ar
     7    30    31   ar
     8    31    25    1
     9    25    26    1
    10    25    24    1
    11    24    23    1
    12    23    22    1
    13    22     1    1
    14     1     2    1
    15     2     3    1
    16     3     4    1
    17     4     7    1
    18     7     8    1
    19     7    10    1
    20    10    11   ar
    21    11    12   ar
    22    12    13   ar
    23    13    14   ar
    24    14    15   ar
    25     7    16    1
    26    16    17   ar
    27    17    18   ar
    28    18    19   ar
    29    19    20   ar
    30    20    21   ar
    31     4     5    1
    32     5     6    1
    33    31    32   ar
    34    32    33   ar
    35    33    28   ar
    36     6     1    1
    37    15    10   ar
    38    21    16   ar
    39    37    38    1
    40    26    27    1
    41     8     9    1
@<TRIPOS>MOLECULE
*****
 38 41 0 0 0
SMALL
GASTEIGER

@<TRIPOS>ATOM
      1 N         143.2339  138.7139  162.9683 N.3     1  UNL1       -0.2727
      2 C         143.7506  140.0207  163.4927 C.3     1  UNL1        0.0722
      3 C         143.1527  140.6213  164.7304 C.3     1  UNL1        0.0204
      4 C         142.0381  139.9150  165.4436 C.3     1  UNL1        0.0353
      5 C         141.5213  138.6081  164.9192 C.3     1  UNL1        0.0204
      6 C         142.1192  138.0075  163.6815 C.3     1  UNL1        0.0722
      7 C         141.4403  140.5156  166.6813 C.3     1  UNL1        0.1256
      8 O         142.5499  139.9284  167.5023 O.3     1  UNL1       -0.3786
      9 H         143.3927  140.3326  167.2431 H       1  UNL1        0.2111
     10 C         140.8424  141.1161  167.9190 C.ar    1  UNL1        0.0056
     11 C         139.8778  140.3209  168.7479 C.ar    1  UNL1       -0.0017
     12 C         139.2799  140.9214  169.9856 C.ar    1  UNL1       -0.0002
     13 C         139.6466  142.3173  170.3944 C.ar    1  UNL1       -0.0000
     14 C         140.6112  143.1126  169.5655 C.ar    1  UNL1       -0.0002
     15 C         141.2091  142.5120  168.3278 C.ar    1  UNL1       -0.0017
     16 C         140.3306  141.1027  165.8604 C.ar    1  UNL1        0.0056
     17 C         140.4250  142.5190  165.3754 C.ar    1  UNL1       -0.0017
     18 C         139.3154  143.1062  164.5545 C.ar    1  UNL1       -0.0002
     19 C         138.1114  142.2771  164.2185 C.ar    1  UNL1       -0.0000
     20 C         138.0170  140.8608  164.7035 C.ar    1  UNL1       -0.0002
     21 C         139.1266  140.2737  165.5244 C.ar    1  UNL1       -0.0017
     22 C         143.8318  138.1133  161.7306 C.3     1  UNL1        0.0722
     23 C         142.9402  137.6334  160.6238 C.3     1  UNL1        0.0202
     24 C         142.4991  138.5838  159.5505 C.3     1  UNL1        0.0352
     25 C         143.2521  139.8612  159.3241 C.3     1  UNL1        0.1328
     26 O         144.3154  139.9278  158.2682 O.3     1  UNL1       -0.3801
     27 H         144.3888  139.0664  157.8283 H       1  UNL1        0.2108
     28 C         142.3212  143.4932  161.8124 C.ar    1  UNL1        0.0017
     29 C         143.6922  143.3138  161.2308 C.ar    1  UNL1       -0.0023
     30 C         144.0025  142.1031  160.4014 C.ar    1  UNL1       -0.0022
     31 C         142.9418  141.0718  160.1535 C.ar    1  UNL1        0.0042
     32 C         141.5709  141.2512  160.7351 C.ar    1  UNL1       -0.0022
     33 C         141.2606  142.4619  161.5646 C.ar    1  UNL1       -0.0023
     34 C         140.8557  145.0252  161.7407 C.3     1  UNL1        0.0339
     35 C         142.0109  144.7039  162.6419 C.3     1  UNL1        0.1071
     36 C         143.1662  144.3825  163.5430 C.3     1  UNL1        0.0339
     37 O         141.7006  145.9145  163.4713 O.3     1  UNL1       -0.3827
     38 H         140.7917  145.8539  163.8044 H       1  UNL1        0.2107
@<TRIPOS>BOND
     1    34    35    1
     2    35    36    1
     3    35    37    1
     4    35    28    1
     5    28    29   ar
     6    29    30   ar
     7    30    31   ar
     8    31    25    1
     9    25    26    1
    10    25    24    1
    11    24    23    1
    12    23    22    1
    13    22     1    1
    14     1     2    1
    15     2     3    1
    16     3     4    1
    17     4     7    1
    18     7     8    1
    19     7    10    1
    20    10    11   ar
    21    11    12   ar
    22    12    13   ar
    23    13    14   ar
    24    14    15   ar
    25     7    16    1
    26    16    17   ar
    27    17    18   ar
    28    18    19   ar
    29    19    20   ar
    30    20    21   ar
    31     4     5    1
    32     5     6    1
    33    31    32   ar
    34    32    33   ar
    35    33    28   ar
    36     6     1    1
    37    15    10   ar
    38    21    16   ar
    39    37    38    1
    40    26    27    1
    41     8     9    1
@<TRIPOS>MOLECULE
*****
 38 41 0 0 0
SMALL
GASTEIGER

@<TRIPOS>ATOM
      1 N         142.8187  142.1888  161.1556 N.3     1  UNL1       -0.2727
      2 C         143.7231  142.2909  162.3479 C.3     1  UNL1        0.0722
      3 C         143.1775  142.0568  163.7254 C.3     1  UNL1        0.0204
      4 C         141.7274  141.7207  163.9106 C.3     1  UNL1        0.0353
      5 C         140.8229  141.6186  162.7183 C.3     1  UNL1        0.0204
      6 C         141.3686  141.8527  161.3408 C.3     1  UNL1        0.0722
      7 C         141.1818  141.4866  165.2881 C.3     1  UNL1        0.1256
      8 O         142.3067  140.5358  165.5721 O.3     1  UNL1       -0.3786
      9 H         143.1479  141.0188  165.5649 H       1  UNL1        0.2111
     10 C         140.6362  141.2525  166.6656 C.ar    1  UNL1        0.0056
     11 C         139.8415  140.0142  166.9571 C.ar    1  UNL1       -0.0017
     12 C         139.2959  139.7801  168.3346 C.ar    1  UNL1       -0.0002
     13 C         139.5449  140.7844  169.4206 C.ar    1  UNL1       -0.0000
     14 C         140.3396  142.0228  169.1291 C.ar    1  UNL1       -0.0002
     15 C         140.8852  142.2569  167.7516 C.ar    1  UNL1       -0.0017
     16 C         140.0569  142.4374  165.0041 C.ar    1  UNL1        0.0056
     17 C         140.3181  143.9134  164.9500 C.ar    1  UNL1       -0.0017
     18 C         139.1932  144.8642  164.6659 C.ar    1  UNL1       -0.0002
     19 C         137.8071  144.3389  164.4360 C.ar    1  UNL1       -0.0000
     20 C         137.5460  142.8628  164.4901 C.ar    1  UNL1       -0.0002
     21 C         138.6709  141.9121  164.7741 C.ar    1  UNL1       -0.0017
     22 C         143.3643  142.4229  159.7781 C.3     1  UNL1        0.0722
     23 C         143.2179  141.3660  158.7238 C.3     1  UNL1        0.0202
     24 C         143.9068  140.0435  158.8868 C.3     1  UNL1        0.0352
     25 C         143.0981  138.7846  158.9926 C.3     1  UNL1        0.1328
     26 O         143.1041  137.7926  157.8676 O.3     1  UNL1       -0.3801
     27 H         143.6768  138.1159  157.1545 H       1  UNL1        0.2108
     28 C         140.6542  137.9840  162.6854 C.ar    1  UNL1        0.0017
     29 C         142.1499  138.0530  162.7762 C.ar    1  UNL1       -0.0023
     30 C         142.9645  138.3199  161.5453 C.ar    1  UNL1       -0.0022
     31 C         142.2835  138.5178  160.2236 C.ar    1  UNL1        0.0042
     32 C         140.7879  138.4487  160.1327 C.ar    1  UNL1       -0.0022
     33 C         139.9733  138.1818  161.3636 C.ar    1  UNL1       -0.0023
     34 C         138.6260  138.2755  163.2341 C.3     1  UNL1        0.0339
     35 C         139.8396  137.7171  163.9163 C.3     1  UNL1        0.1071
     36 C         141.0532  137.1587  164.5984 C.3     1  UNL1        0.0339
     37 O         139.0250  137.4502  165.1472 O.3     1  UNL1       -0.3827
     38 H         138.2816  136.8688  164.9231 H       1  UNL1        0.2107
@<TRIPOS>BOND
     1    34    35    1
     2    35    36    1
     3    35    37    1
     4    35    28    1
     5    28    29   ar
     6    29    30   ar
     7    30    31   ar
     8    31    25    1
     9    25    26    1
    10    25    24    1
    11    24    23    1
    12    23    22    1
    13    22     1    1
    14     1     2    1
    15     2     3    1
    16     3     4    1
    17     4     7    1
    18     7     8    1
    19     7    10    1
    20    10    11   ar
    21    11    12   ar
    22    12    13   ar
    23    13    14   ar
    24    14    15   ar
    25     7    16    1
    26    16    17   ar
    27    17    18   ar
    28    18    19   ar
    29    19    20   ar
    30    20    21   ar
    31     4     5    1
    32     5     6    1
    33    31    32   ar
    34    32    33   ar
    35    33    28   ar
    36     6     1    1
    37    15    10   ar
    38    21    16   ar
    39    37    38    1
    40    26    27    1
    41     8     9    1
@<TRIPOS>MOLECULE
*****
 38 41 0 0 0
SMALL
GASTEIGER

@<TRIPOS>ATOM
      1 N         141.7243  138.8498  162.5070 N.3     1  UNL1       -0.2727
      2 C         140.4429  139.2269  163.1894 C.3     1  UNL1        0.0722
      3 C         140.4772  139.9832  164.4843 C.3     1  UNL1        0.0204
      4 C         141.7928  140.3623  165.0969 C.3     1  UNL1        0.0353
      5 C         143.0743  139.9852  164.4144 C.3     1  UNL1        0.0204
      6 C         143.0401  139.2290  163.1195 C.3     1  UNL1        0.0722
      7 C         141.8271  141.1186  166.3918 C.3     1  UNL1        0.1256
      8 O         141.2880  139.9161  167.1084 O.3     1  UNL1       -0.3786
      9 H         141.9356  139.1953  167.0628 H       1  UNL1        0.2111
     10 C         141.8613  141.8748  167.6868 C.ar    1  UNL1        0.0056
     11 C         140.6755  142.6894  168.1112 C.ar    1  UNL1       -0.0017
     12 C         140.7097  143.4457  169.4061 C.ar    1  UNL1       -0.0002
     13 C         141.9298  143.3873  170.2767 C.ar    1  UNL1       -0.0000
     14 C         143.1157  142.5727  169.8523 C.ar    1  UNL1       -0.0002
     15 C         143.0815  141.8164  168.5574 C.ar    1  UNL1       -0.0017
     16 C         142.3661  142.3211  165.6753 C.ar    1  UNL1        0.0056
     17 C         143.8142  142.6881  165.8105 C.ar    1  UNL1       -0.0017
     18 C         144.3532  143.8906  165.0939 C.ar    1  UNL1       -0.0002
     19 C         143.4441  144.7262  164.2423 C.ar    1  UNL1       -0.0000
     20 C         141.9960  144.3592  164.1071 C.ar    1  UNL1       -0.0002
     21 C         141.4570  143.1567  164.8236 C.ar    1  UNL1       -0.0017
     22 C         141.6901  138.0936  161.2120 C.3     1  UNL1        0.0722
     23 C         140.4188  138.0214  160.4190 C.3     1  UNL1        0.0202
     24 C         140.2366  138.8947  159.2131 C.3     1  UNL1        0.0352
     25 C         139.0940  139.8647  159.1553 C.3     1  UNL1        0.1328
     26 O         138.1935  139.8923  157.9560 O.3     1  UNL1       -0.3801
     27 H         138.4869  139.2251  157.3160 H       1  UNL1        0.2108
     28 C         138.3674  142.6921  162.5799 C.ar    1  UNL1        0.0017
     29 C         139.4697  142.9677  161.6007 C.ar    1  UNL1       -0.0023
     30 C         139.7119  142.0253  160.4591 C.ar    1  UNL1       -0.0022
     31 C         138.8518  140.8072  160.2968 C.ar    1  UNL1        0.0042
     32 C         137.7495  140.5316  161.2760 C.ar    1  UNL1       -0.0022
     33 C         137.5073  141.4740  162.4176 C.ar    1  UNL1       -0.0023
     34 C         138.5127  144.7913  162.8486 C.3     1  UNL1        0.0339
     35 C         138.1252  143.6346  163.7214 C.3     1  UNL1        0.1071
     36 C         137.7377  142.4778  164.5943 C.3     1  UNL1        0.0339
     37 O         137.8830  144.5770  164.8630 O.3     1  UNL1       -0.3827
     38 H         137.2193  145.2351  164.6037 H       1  UNL1        0.2107
@<TRIPOS>BOND
     1    34    35    1
     2    35    36    1
     3    35    37    1
     4    35    28    1
     5    28    29   ar
     6    29    30   ar
     7    30    31   ar
     8    31    25    1
     9    25    26    1
    10    25    24    1
    11    24    23    1
    12    23    22    1
    13    22     1    1
    14     1     2    1
    15     2     3    1
    16     3     4    1
    17     4     7    1
    18     7     8    1
    19     7    10    1
    20    10    11   ar
    21    11    12   ar
    22    12    13   ar
    23    13    14   ar
    24    14    15   ar
    25     7    16    1
    26    16    17   ar
    27    17    18   ar
    28    18    19   ar
    29    19    20   ar
    30    20    21   ar
    31     4     5    1
    32     5     6    1
    33    31    32   ar
    34    32    33   ar
    35    33    28   ar
    36     6     1    1
    37    15    10   ar
    38    21    16   ar
    39    37    38    1
    40    26    27    1
    41     8     9    1
@<TRIPOS>MOLECULE
*****
 38 41 0 0 0
SMALL
GASTEIGER

@<TRIPOS>ATOM
      1 N         139.5927  139.0044  160.5940 N.3     1  UNL1       -0.2727
      2 C         138.5160  138.5989  161.5563 C.3     1  UNL1        0.0722
      3 C         138.7266  138.7672  163.0319 C.3     1  UNL1        0.0204
      4 C         140.0140  139.3409  163.5451 C.3     1  UNL1        0.0353
      5 C         141.0908  139.7464  162.5828 C.3     1  UNL1        0.0204
      6 C         140.8802  139.5782  161.1072 C.3     1  UNL1        0.0722
      7 C         140.2247  139.5091  165.0207 C.3     1  UNL1        0.1256
      8 O         140.7656  138.1125  165.1027 O.3     1  UNL1       -0.3786
      9 H         141.5914  138.0554  164.5970 H       1  UNL1        0.2111
     10 C         140.4353  139.6774  166.4963 C.ar    1  UNL1        0.0056
     11 C         141.8231  139.6441  167.0644 C.ar    1  UNL1       -0.0017
     12 C         142.0338  139.8123  168.5400 C.ar    1  UNL1       -0.0002
     13 C         140.8566  140.0138  169.4474 C.ar    1  UNL1       -0.0000
     14 C         139.4687  140.0471  168.8794 C.ar    1  UNL1       -0.0002
     15 C         139.2580  139.8789  167.4038 C.ar    1  UNL1       -0.0017
     16 C         139.6837  140.9058  164.9387 C.ar    1  UNL1        0.0056
     17 C         138.2399  141.1322  164.6010 C.ar    1  UNL1       -0.0017
     18 C         137.6990  142.5289  164.5190 C.ar    1  UNL1       -0.0002
     19 C         138.6018  143.6991  164.7747 C.ar    1  UNL1       -0.0000
     20 C         140.0456  143.4727  165.1124 C.ar    1  UNL1       -0.0002
     21 C         140.5866  142.0760  165.1944 C.ar    1  UNL1       -0.0017
     22 C         139.3821  138.8362  159.1184 C.3     1  UNL1        0.0722
     23 C         139.9008  139.8707  158.1640 C.3     1  UNL1        0.0202
     24 C         138.9531  140.5917  157.2517 C.3     1  UNL1        0.0352
     25 C         138.2637  141.8387  157.7202 C.3     1  UNL1        0.1328
     26 O         136.9474  142.2378  157.1219 O.3     1  UNL1       -0.3801
     27 H         136.6857  141.5864  156.4525 H       1  UNL1        0.2108
     28 C         140.1444  144.3826  160.9205 C.ar    1  UNL1        0.0017
     29 C         140.4774  144.6243  159.4780 C.ar    1  UNL1       -0.0023
     30 C         139.8505  143.7764  158.4113 C.ar    1  UNL1       -0.0022
     31 C         138.8906  142.6867  158.7869 C.ar    1  UNL1        0.0042
     32 C         138.5576  142.4449  160.2294 C.ar    1  UNL1       -0.0022
     33 C         139.1845  143.2929  161.2961 C.ar    1  UNL1       -0.0023
     34 C         141.8992  144.2488  162.1048 C.3     1  UNL1        0.0339
     35 C         140.7713  145.2306  161.9872 C.3     1  UNL1        0.1071
     36 C         139.6433  146.2123  161.8697 C.3     1  UNL1        0.0339
     37 O         141.3982  146.0785  163.0540 O.3     1  UNL1       -0.3827
     38 H         142.2941  146.3312  162.7813 H       1  UNL1        0.2107
@<TRIPOS>BOND
     1    34    35    1
     2    35    36    1
     3    35    37    1
     4    35    28    1
     5    28    29   ar
     6    29    30   ar
     7    30    31   ar
     8    31    25    1
     9    25    26    1
    10    25    24    1
    11    24    23    1
    12    23    22    1
    13    22     1    1
    14     1     2    1
    15     2     3    1
    16     3     4    1
    17     4     7    1
    18     7     8    1
    19     7    10    1
    20    10    11   ar
    21    11    12   ar
    22    12    13   ar
    23    13    14   ar
    24    14    15   ar
    25     7    16    1
    26    16    17   ar
    27    17    18   ar
    28    18    19   ar
    29    19    20   ar
    30    20    21   ar
    31     4     5    1
    32     5     6    1
    33    31    32   ar
    34    32    33   ar
    35    33    28   ar
    36     6     1    1
    37    15    10   ar
    38    21    16   ar
    39    37    38    1
    40    26    27    1
    41     8     9    1
