@<TRIPOS>MOLECULE
*****
 39 44 0 0 0
SMALL
GASTEIGER

@<TRIPOS>ATOM
      1 C         139.9255  138.1471  158.2155 C.3     1  UNL1        0.0280
      2 C         139.3318  139.3716  158.8465 C.3     1  UNL1        0.0584
      3 C         138.7462  140.4506  157.9846 C.3     1  UNL1        0.0174
      4 C         139.2796  140.3115  168.4930 C.ar    1  UNL1        0.2057
      5 N         138.7594  139.1368  167.7187 N.ar    1  UNL1       -0.2121
      6 C         138.9676  139.4145  166.2595 C.ar    1  UNL1        0.1179
      7 C         138.6501  138.6154  165.0304 C.ar    1  UNL1        0.0178
      8 C         138.9816  139.1626  163.6737 C.ar    1  UNL1       -0.0233
      9 C         139.6305  140.5089  163.5460 C.ar    1  UNL1       -0.0256
     10 C         139.9480  141.3080  164.7750 C.ar    1  UNL1        0.0101
     11 C         140.5969  142.6544  164.6473 C.3     1  UNL1        0.0339
     12 C         139.6165  140.7609  166.1318 C.ar    1  UNL1        0.1600
     13 O         139.8094  141.3152  167.5122 O.2     1  UNL1       -0.4387
     14 C         140.0414  141.2346  162.2992 C.3     1  UNL1        0.0431
     15 C         139.9049  140.7931  160.8721 C.3     1  UNL1        0.0768
     16 N         139.3238  139.5171  160.3395 N.3     1  UNL1       -0.2733
     17 C         138.7356  138.3672  161.1022 C.3     1  UNL1        0.0768
     18 C         138.5833  138.2094  162.5861 C.3     1  UNL1        0.0434
     19 C         140.4646  140.0281  170.7877 C.3     1  UNL1        0.0102
     20 C         139.2716  140.4570  169.9859 C.3     1  UNL1        0.0853
     21 C         140.9778  138.2848  157.1554 C.3     1  UNL1        0.0665
     22 S         142.4164  138.0212  157.4880 S.3     1  UNL1       -0.0756
     23 C         142.9102  138.2181  158.8906 C.ar    1  UNL1        0.1932
     24 N         143.3060  137.1321  159.8466 N.ar    1  UNL1       -0.1221
     25 N         143.7354  137.7785  161.1304 N.ar    1  UNL1       -0.1282
     26 C         143.6050  139.2639  160.9677 C.ar    1  UNL1        0.1669
     27 N         143.0950  139.5356  159.5835 N.ar    1  UNL1       -0.2884
     28 C         142.8184  140.8875  158.9954 C.3     1  UNL1        0.1340
     29 C         143.9278  140.2963  162.0068 C.ar    1  UNL1        0.0374
     30 C         144.5782  141.5869  161.6051 C.ar    1  UNL1        0.0031
     31 C         144.9011  142.6194  162.6443 C.ar    1  UNL1        0.0016
     32 C         144.5736  142.3612  164.0852 C.ar    1  UNL1        0.0191
     33 C         143.9232  141.0706  164.4869 C.ar    1  UNL1        0.0810
     34 N         143.5957  140.8124  165.9278 N.ar    1  UNL1       -0.2497
     35 C         142.9453  139.5218  166.3295 C.ar    1  UNL1        0.0593
     36 C         142.6178  139.2637  167.7703 C.3     1  UNL1        0.0521
     37 C         142.6224  138.4894  165.2903 C.ar    1  UNL1        0.0147
     38 C         142.9500  138.7476  163.8495 C.ar    1  UNL1        0.0028
     39 C         143.6003  140.0382  163.4478 C.ar    1  UNL1        0.0206
@<TRIPOS>BOND
     1    19    20    1
     2    20     4    1
     3     4     5   ar
     4     5     6   ar
     5     6     7   ar
     6     7     8   ar
     7     8     9   ar
     8     9    10   ar
     9    10    11    1
    10    10    12   ar
    11    12    13   ar
    12     9    14    1
    13    14    15    1
    14    15    16    1
    15    16     2    1
    16     2     3    1
    17     2     1    1
    18     1    21    1
    19    21    22    1
    20    22    23    1
    21    23    24   ar
    22    24    25   ar
    23    25    26   ar
    24    26    29    1
    25    29    30   ar
    26    30    31   ar
    27    31    32   ar
    28    32    33   ar
    29    33    34   ar
    30    34    35   ar
    31    35    36    1
    32    35    37   ar
    33    37    38   ar
    34    38    39   ar
    35    26    27   ar
    36    27    28    1
    37    16    17    1
    38    17    18    1
    39    13     4   ar
    40    27    23   ar
    41    12     6   ar
    42    39    29   ar
    43    18     8    1
    44    39    33   ar
@<TRIPOS>MOLECULE
*****
 39 44 0 0 0
SMALL
GASTEIGER

@<TRIPOS>ATOM
      1 C         141.4295  142.4264  170.3322 C.3     1  UNL1        0.0280
      2 C         142.4643  142.5713  169.2560 C.3     1  UNL1        0.0584
      3 C         143.9200  142.6125  169.6158 C.3     1  UNL1        0.0174
      4 C         139.7451  143.2416  159.9771 C.ar    1  UNL1        0.2057
      5 N         141.1165  142.8870  160.4706 N.ar    1  UNL1       -0.2121
      6 C         141.0873  142.9005  161.9702 C.ar    1  UNL1        0.1179
      7 C         142.1465  142.6292  162.9972 C.ar    1  UNL1        0.0178
      8 C         141.8163  142.7208  164.4575 C.ar    1  UNL1       -0.0233
      9 C         140.4269  143.0838  164.8908 C.ar    1  UNL1       -0.0256
     10 C         139.3677  143.3551  163.8640 C.ar    1  UNL1        0.0101
     11 C         137.9783  143.7181  164.2974 C.3     1  UNL1        0.0339
     12 C         139.6979  143.2635  162.4036 C.ar    1  UNL1        0.1600
     13 O         138.8684  143.4743  161.1718 O.2     1  UNL1       -0.4387
     14 C         139.8896  143.2290  166.2838 C.3     1  UNL1        0.0431
     15 C         140.6092  143.0471  167.5874 C.3     1  UNL1        0.0768
     16 N         142.0435  142.6751  167.8200 N.3     1  UNL1       -0.2733
     17 C         143.1127  142.3931  166.8064 C.3     1  UNL1        0.0768
     18 C         143.0116  142.4134  165.3100 C.3     1  UNL1        0.0434
     19 C         138.1764  142.5231  158.0347 C.3     1  UNL1        0.0102
     20 C         139.3242  143.3454  158.5411 C.3     1  UNL1        0.0853
     21 C         141.4052  141.1949  171.1883 C.3     1  UNL1        0.0665
     22 S         140.7363  139.9483  170.6900 S.3     1  UNL1       -0.0756
     23 C         140.3586  139.8267  169.2434 C.ar    1  UNL1        0.1932
     24 N         138.9810  139.9964  168.6746 N.ar    1  UNL1       -0.1221
     25 N         139.0632  139.7887  167.1912 N.ar    1  UNL1       -0.1282
     26 C         140.4916  139.4906  166.8434 C.ar    1  UNL1        0.1669
     27 N         141.2921  139.5142  168.1116 N.ar    1  UNL1       -0.2884
     28 C         142.7673  139.2683  168.2279 C.3     1  UNL1        0.1340
     29 C         141.0256  139.2171  165.4686 C.ar    1  UNL1        0.0374
     30 C         142.4395  138.7480  165.2928 C.ar    1  UNL1        0.0031
     31 C         142.9735  138.4744  163.9181 C.ar    1  UNL1        0.0016
     32 C         142.0936  138.6700  162.7190 C.ar    1  UNL1        0.0191
     33 C         140.6797  139.1391  162.8948 C.ar    1  UNL1        0.0810
     34 N         139.7999  139.3347  161.6958 N.ar    1  UNL1       -0.2497
     35 C         138.3860  139.8038  161.8716 C.ar    1  UNL1        0.0593
     36 C         137.5061  139.9994  160.6726 C.3     1  UNL1        0.0521
     37 C         137.8520  140.0774  163.2464 C.ar    1  UNL1        0.0147
     38 C         138.7318  139.8818  164.4454 C.ar    1  UNL1        0.0028
     39 C         140.1457  139.4127  164.2696 C.ar    1  UNL1        0.0206
@<TRIPOS>BOND
     1    19    20    1
     2    20     4    1
     3     4     5   ar
     4     5     6   ar
     5     6     7   ar
     6     7     8   ar
     7     8     9   ar
     8     9    10   ar
     9    10    11    1
    10    10    12   ar
    11    12    13   ar
    12     9    14    1
    13    14    15    1
    14    15    16    1
    15    16     2    1
    16     2     3    1
    17     2     1    1
    18     1    21    1
    19    21    22    1
    20    22    23    1
    21    23    24   ar
    22    24    25   ar
    23    25    26   ar
    24    26    29    1
    25    29    30   ar
    26    30    31   ar
    27    31    32   ar
    28    32    33   ar
    29    33    34   ar
    30    34    35   ar
    31    35    36    1
    32    35    37   ar
    33    37    38   ar
    34    38    39   ar
    35    26    27   ar
    36    27    28    1
    37    16    17    1
    38    17    18    1
    39    13     4   ar
    40    27    23   ar
    41    12     6   ar
    42    39    29   ar
    43    18     8    1
    44    39    33   ar
@<TRIPOS>MOLECULE
*****
 39 44 0 0 0
SMALL
GASTEIGER

@<TRIPOS>ATOM
      1 C         142.3017  140.3982  170.3929 C.3     1  UNL1        0.0280
      2 C         143.1103  141.2338  169.4452 C.3     1  UNL1        0.0584
      3 C         143.9291  142.3779  169.9656 C.3     1  UNL1        0.0174
      4 C         143.0443  139.2402  159.9604 C.ar    1  UNL1        0.2057
      5 N         142.8221  138.2555  161.0700 N.ar    1  UNL1       -0.2121
      6 C         142.9190  138.9943  162.3717 C.ar    1  UNL1        0.1179
      7 C         142.7868  138.5408  163.7954 C.ar    1  UNL1        0.0178
      8 C         142.9367  139.5288  164.9142 C.ar    1  UNL1       -0.0233
      9 C         143.2187  140.9700  164.6093 C.ar    1  UNL1       -0.0256
     10 C         143.3509  141.4235  163.1856 C.ar    1  UNL1        0.0101
     11 C         143.6330  142.8649  162.8807 C.3     1  UNL1        0.0339
     12 C         143.2011  140.4357  162.0668 C.ar    1  UNL1        0.1600
     13 O         143.2785  140.5876  160.5765 O.2     1  UNL1       -0.4387
     14 C         143.4026  142.1100  165.5668 C.3     1  UNL1        0.0431
     15 C         143.3498  142.0900  167.0658 C.3     1  UNL1        0.0768
     16 N         143.1001  140.9253  167.9773 N.3     1  UNL1       -0.2733
     17 C         142.8415  139.4928  167.6152 C.3     1  UNL1        0.0768
     18 C         142.7688  138.8713  166.2520 C.3     1  UNL1        0.0434
     19 C         142.4896  137.6216  158.0052 C.3     1  UNL1        0.0102
     20 C         143.0341  138.9317  158.4925 C.3     1  UNL1        0.0853
     21 C         141.1313  141.0004  171.1124 C.3     1  UNL1        0.0665
     22 S         139.7648  140.9491  170.4961 S.3     1  UNL1       -0.0756
     23 C         139.6165  140.7641  169.0150 C.ar    1  UNL1        0.1932
     24 N         139.1807  139.5068  168.3226 N.ar    1  UNL1       -0.1221
     25 N         139.1728  139.7698  166.8458 N.ar    1  UNL1       -0.1282
     26 C         139.6037  141.1896  166.6255 C.ar    1  UNL1        0.1669
     27 N         139.8779  141.8041  167.9660 N.ar    1  UNL1       -0.2884
     28 C         140.3336  143.2115  168.2142 C.3     1  UNL1        0.1340
     29 C         139.7370  141.8745  165.2977 C.ar    1  UNL1        0.0374
     30 C         139.9983  143.3504  165.2380 C.ar    1  UNL1        0.0031
     31 C         140.1315  144.0353  163.9102 C.ar    1  UNL1        0.0016
     32 C         140.0035  143.2444  162.6420 C.ar    1  UNL1        0.0191
     33 C         139.7423  141.7685  162.7017 C.ar    1  UNL1        0.0810
     34 N         139.6143  140.9776  161.4336 N.ar    1  UNL1       -0.2497
     35 C         139.3530  139.5017  161.4934 C.ar    1  UNL1        0.0593
     36 C         139.2250  138.7108  160.2253 C.3     1  UNL1        0.0521
     37 C         139.2197  138.8168  162.8212 C.ar    1  UNL1        0.0147
     38 C         139.3477  139.6077  164.0892 C.ar    1  UNL1        0.0028
     39 C         139.6090  141.0836  164.0295 C.ar    1  UNL1        0.0206
@<TRIPOS>BOND
     1    19    20    1
     2    20     4    1
     3     4     5   ar
     4     5     6   ar
     5     6     7   ar
     6     7     8   ar
     7     8     9   ar
     8     9    10   ar
     9    10    11    1
    10    10    12   ar
    11    12    13   ar
    12     9    14    1
    13    14    15    1
    14    15    16    1
    15    16     2    1
    16     2     3    1
    17     2     1    1
    18     1    21    1
    19    21    22    1
    20    22    23    1
    21    23    24   ar
    22    24    25   ar
    23    25    26   ar
    24    26    29    1
    25    29    30   ar
    26    30    31   ar
    27    31    32   ar
    28    32    33   ar
    29    33    34   ar
    30    34    35   ar
    31    35    36    1
    32    35    37   ar
    33    37    38   ar
    34    38    39   ar
    35    26    27   ar
    36    27    28    1
    37    16    17    1
    38    17    18    1
    39    13     4   ar
    40    27    23   ar
    41    12     6   ar
    42    39    29   ar
    43    18     8    1
    44    39    33   ar
@<TRIPOS>MOLECULE
*****
 39 44 0 0 0
SMALL
GASTEIGER

@<TRIPOS>ATOM
      1 C         141.4394  145.1238  160.2506 C.3     1  UNL1        0.0280
      2 C         140.6166  145.3023  161.4921 C.3     1  UNL1        0.0584
      3 C         139.5343  146.3402  161.5318 C.3     1  UNL1        0.0174
      4 C         142.2933  139.7489  169.2567 C.ar    1  UNL1        0.2057
      5 N         143.2301  140.7715  168.6852 N.ar    1  UNL1       -0.2121
      6 C         142.5672  141.3912  167.4909 C.ar    1  UNL1        0.1179
      7 C         143.0158  142.4553  166.5335 C.ar    1  UNL1        0.0178
      8 C         142.1178  142.8798  165.4095 C.ar    1  UNL1       -0.0233
      9 C         140.7713  142.2403  165.2429 C.ar    1  UNL1       -0.0256
     10 C         140.3227  141.1763  166.2002 C.ar    1  UNL1        0.0101
     11 C         138.9761  140.5368  166.0336 C.3     1  UNL1        0.0339
     12 C         141.2206  140.7517  167.3242 C.ar    1  UNL1        0.1600
     13 O         141.0514  139.7367  168.4156 O.2     1  UNL1       -0.4387
     14 C         139.7288  142.5135  164.1995 C.3     1  UNL1        0.0431
     15 C         139.7755  143.4938  163.0650 C.3     1  UNL1        0.0768
     16 N         140.8761  144.4428  162.6938 N.3     1  UNL1       -0.2733
     17 C         142.2019  144.6461  163.3653 C.3     1  UNL1        0.0768
     18 C         142.7545  143.9505  164.5739 C.3     1  UNL1        0.0434
     19 C         143.2968  137.5956  170.3086 C.3     1  UNL1        0.0102
     20 C         142.5528  138.8894  170.4584 C.3     1  UNL1        0.0853
     21 C         140.7646  144.9357  158.9242 C.3     1  UNL1        0.0665
     22 S         140.7725  143.5894  158.2631 S.3     1  UNL1       -0.0756
     23 C         141.1105  142.3644  159.0600 C.ar    1  UNL1        0.1932
     24 N         142.4074  141.6121  159.0132 N.ar    1  UNL1       -0.1221
     25 N         142.3092  140.4593  159.9680 N.ar    1  UNL1       -0.1282
     26 C         140.9517  140.4991  160.6048 C.ar    1  UNL1        0.1669
     27 N         140.2109  141.6765  160.0436 N.ar    1  UNL1       -0.2884
     28 C         138.8153  142.0930  160.4030 C.3     1  UNL1        0.1340
     29 C         140.4271  139.5315  161.6238 C.ar    1  UNL1        0.0374
     30 C         139.0686  138.9202  161.4480 C.ar    1  UNL1        0.0031
     31 C         138.5441  137.9525  162.4671 C.ar    1  UNL1        0.0016
     32 C         139.3780  137.5961  163.6620 C.ar    1  UNL1        0.0191
     33 C         140.7364  138.2075  163.8378 C.ar    1  UNL1        0.0810
     34 N         141.5703  137.8511  165.0326 N.ar    1  UNL1       -0.2497
     35 C         142.9288  138.4624  165.2084 C.ar    1  UNL1        0.0593
     36 C         143.7627  138.1061  166.4032 C.3     1  UNL1        0.0521
     37 C         143.4534  139.4301  164.1893 C.ar    1  UNL1        0.0147
     38 C         142.6195  139.7864  162.9945 C.ar    1  UNL1        0.0028
     39 C         141.2610  139.1751  162.8187 C.ar    1  UNL1        0.0206
@<TRIPOS>BOND
     1    19    20    1
     2    20     4    1
     3     4     5   ar
     4     5     6   ar
     5     6     7   ar
     6     7     8   ar
     7     8     9   ar
     8     9    10   ar
     9    10    11    1
    10    10    12   ar
    11    12    13   ar
    12     9    14    1
    13    14    15    1
    14    15    16    1
    15    16     2    1
    16     2     3    1
    17     2     1    1
    18     1    21    1
    19    21    22    1
    20    22    23    1
    21    23    24   ar
    22    24    25   ar
    23    25    26   ar
    24    26    29    1
    25    29    30   ar
    26    30    31   ar
    27    31    32   ar
    28    32    33   ar
    29    33    34   ar
    30    34    35   ar
    31    35    36    1
    32    35    37   ar
    33    37    38   ar
    34    38    39   ar
    35    26    27   ar
    36    27    28    1
    37    16    17    1
    38    17    18    1
    39    13     4   ar
    40    27    23   ar
    41    12     6   ar
    42    39    29   ar
    43    18     8    1
    44    39    33   ar
@<TRIPOS>MOLECULE
*****
 39 44 0 0 0
SMALL
GASTEIGER

@<TRIPOS>ATOM
      1 C         142.8320  140.0956  168.4240 C.3     1  UNL1        0.0280
      2 C         143.1034  139.4746  167.0857 C.3     1  UNL1        0.0584
      3 C         143.6273  138.0715  167.0024 C.3     1  UNL1        0.0174
      4 C         141.4723  144.5283  158.9777 C.ar    1  UNL1        0.2057
      5 N         141.3979  143.0366  159.1169 N.ar    1  UNL1       -0.2121
      6 C         141.7231  142.6870  160.5388 C.ar    1  UNL1        0.1179
      7 C         141.8040  141.3718  161.2557 C.ar    1  UNL1        0.0178
      8 C         142.1603  141.3323  162.7123 C.ar    1  UNL1       -0.0233
      9 C         142.4357  142.6078  163.4519 C.ar    1  UNL1       -0.0256
     10 C         142.3547  143.9230  162.7351 C.ar    1  UNL1        0.0101
     11 C         142.6301  145.1985  163.4748 C.3     1  UNL1        0.0339
     12 C         141.9984  143.9626  161.2785 C.ar    1  UNL1        0.1600
     13 O         141.8434  145.1005  160.3136 O.2     1  UNL1       -0.4387
     14 C         142.8047  142.7917  164.8942 C.3     1  UNL1        0.0431
     15 C         142.9896  141.7453  165.9529 C.3     1  UNL1        0.0768
     16 N         142.8510  140.2568  165.8309 N.3     1  UNL1       -0.2733
     17 C         142.4934  139.4468  164.6201 C.3     1  UNL1        0.0768
     18 C         142.1860  139.9255  163.2321 C.3     1  UNL1        0.0434
     19 C         142.3135  145.4763  156.7097 C.3     1  UNL1        0.0102
     20 C         141.2199  145.3105  157.7229 C.3     1  UNL1        0.0853
     21 C         141.7637  139.5283  169.3112 C.3     1  UNL1        0.0665
     22 S         140.3440  139.9893  169.1643 S.3     1  UNL1       -0.0756
     23 C         139.7820  140.2650  167.8012 C.ar    1  UNL1        0.1932
     24 N         139.0851  139.2731  166.9176 N.ar    1  UNL1       -0.1221
     25 N         138.6907  139.9762  165.6526 N.ar    1  UNL1       -0.1282
     26 C         139.1438  141.4025  165.7544 C.ar    1  UNL1        0.1669
     27 N         139.8182  141.5809  167.0822 N.ar    1  UNL1       -0.2884
     28 C         140.4228  142.8523  167.6002 C.3     1  UNL1        0.1340
     29 C         138.9555  142.4639  164.7114 C.ar    1  UNL1        0.0374
     30 C         139.0338  143.9125  165.0928 C.ar    1  UNL1        0.0031
     31 C         138.8455  144.9740  164.0498 C.ar    1  UNL1        0.0016
     32 C         138.5789  144.5868  162.6253 C.ar    1  UNL1        0.0191
     33 C         138.5006  143.1382  162.2438 C.ar    1  UNL1        0.0810
     34 N         138.2340  142.7511  160.8194 N.ar    1  UNL1       -0.2497
     35 C         138.1558  141.3025  160.4380 C.ar    1  UNL1        0.0593
     36 C         137.8892  140.9153  159.0136 C.3     1  UNL1        0.0521
     37 C         138.3440  140.2410  161.4810 C.ar    1  UNL1        0.0147
     38 C         138.6106  140.6282  162.9054 C.ar    1  UNL1        0.0028
     39 C         138.6889  142.0768  163.2868 C.ar    1  UNL1        0.0206
@<TRIPOS>BOND
     1    19    20    1
     2    20     4    1
     3     4     5   ar
     4     5     6   ar
     5     6     7   ar
     6     7     8   ar
     7     8     9   ar
     8     9    10   ar
     9    10    11    1
    10    10    12   ar
    11    12    13   ar
    12     9    14    1
    13    14    15    1
    14    15    16    1
    15    16     2    1
    16     2     3    1
    17     2     1    1
    18     1    21    1
    19    21    22    1
    20    22    23    1
    21    23    24   ar
    22    24    25   ar
    23    25    26   ar
    24    26    29    1
    25    29    30   ar
    26    30    31   ar
    27    31    32   ar
    28    32    33   ar
    29    33    34   ar
    30    34    35   ar
    31    35    36    1
    32    35    37   ar
    33    37    38   ar
    34    38    39   ar
    35    26    27   ar
    36    27    28    1
    37    16    17    1
    38    17    18    1
    39    13     4   ar
    40    27    23   ar
    41    12     6   ar
    42    39    29   ar
    43    18     8    1
    44    39    33   ar
@<TRIPOS>MOLECULE
*****
 39 44 0 0 0
SMALL
GASTEIGER

@<TRIPOS>ATOM
      1 C         141.1083  145.2806  159.7285 C.3     1  UNL1        0.0280
      2 C         140.3704  145.5582  161.0046 C.3     1  UNL1        0.0584
      3 C         139.3972  146.6976  161.0756 C.3     1  UNL1        0.0174
      4 C         141.8903  139.9906  168.7913 C.ar    1  UNL1        0.2057
      5 N         140.8800  141.0938  168.6798 N.ar    1  UNL1       -0.2121
      6 C         140.9894  141.6853  167.3057 C.ar    1  UNL1        0.1179
      7 C         140.2467  142.8003  166.6310 C.ar    1  UNL1        0.0178
      8 C         140.5820  143.1778  165.2184 C.ar    1  UNL1       -0.0233
      9 C         141.6598  142.4403  164.4808 C.ar    1  UNL1       -0.0256
     10 C         142.4025  141.3253  165.1555 C.ar    1  UNL1        0.0101
     11 C         143.4804  140.5879  164.4177 C.3     1  UNL1        0.0339
     12 C         142.0673  140.9478  166.5680 C.ar    1  UNL1        0.1600
     13 O         142.6240  139.9005  167.4862 O.2     1  UNL1       -0.4387
     14 C         142.1480  142.6541  163.0786 C.3     1  UNL1        0.0431
     15 C         141.6788  143.6583  162.0679 C.3     1  UNL1        0.0768
     16 N         140.6056  144.6966  162.2097 N.3     1  UNL1       -0.2733
     17 C         139.7365  144.9872  163.3972 C.3     1  UNL1        0.0768
     18 C         139.7260  144.3113  164.7363 C.3     1  UNL1        0.0434
     19 C         143.3336  139.3557  170.8562 C.3     1  UNL1        0.0102
     20 C         142.1255  139.1290  169.9964 C.3     1  UNL1        0.0853
     21 C         140.3469  145.0477  158.4573 C.3     1  UNL1        0.0665
     22 S         139.8260  143.6785  158.1352 S.3     1  UNL1       -0.0756
     23 C         139.4849  142.7261  159.2427 C.ar    1  UNL1        0.1932
     24 N         138.1912  142.6821  160.0006 N.ar    1  UNL1       -0.1221
     25 N         138.2845  141.5792  161.0131 N.ar    1  UNL1       -0.1282
     26 C         139.6359  140.9416  160.8808 C.ar    1  UNL1        0.1669
     27 N         140.3777  141.6504  159.7867 N.ar    1  UNL1       -0.2884
     28 C         141.7683  141.3384  159.3187 C.3     1  UNL1        0.1340
     29 C         140.1542  139.7963  161.6990 C.ar    1  UNL1        0.0374
     30 C         141.1825  138.8682  161.1234 C.ar    1  UNL1        0.0031
     31 C         141.7009  137.7228  161.9416 C.ar    1  UNL1        0.0016
     32 C         141.1910  137.5056  163.3356 C.ar    1  UNL1        0.0191
     33 C         140.1628  138.4337  163.9112 C.ar    1  UNL1        0.0810
     34 N         139.6529  138.2166  165.3051 N.ar    1  UNL1       -0.2497
     35 C         138.6247  139.1447  165.8807 C.ar    1  UNL1        0.0593
     36 C         138.1149  138.9275  167.2746 C.3     1  UNL1        0.0521
     37 C         138.1063  140.2900  165.0625 C.ar    1  UNL1        0.0147
     38 C         138.6162  140.5072  163.6686 C.ar    1  UNL1        0.0028
     39 C         139.6444  139.5791  163.0930 C.ar    1  UNL1        0.0206
@<TRIPOS>BOND
     1    19    20    1
     2    20     4    1
     3     4     5   ar
     4     5     6   ar
     5     6     7   ar
     6     7     8   ar
     7     8     9   ar
     8     9    10   ar
     9    10    11    1
    10    10    12   ar
    11    12    13   ar
    12     9    14    1
    13    14    15    1
    14    15    16    1
    15    16     2    1
    16     2     3    1
    17     2     1    1
    18     1    21    1
    19    21    22    1
    20    22    23    1
    21    23    24   ar
    22    24    25   ar
    23    25    26   ar
    24    26    29    1
    25    29    30   ar
    26    30    31   ar
    27    31    32   ar
    28    32    33   ar
    29    33    34   ar
    30    34    35   ar
    31    35    36    1
    32    35    37   ar
    33    37    38   ar
    34    38    39   ar
    35    26    27   ar
    36    27    28    1
    37    16    17    1
    38    17    18    1
    39    13     4   ar
    40    27    23   ar
    41    12     6   ar
    42    39    29   ar
    43    18     8    1
    44    39    33   ar
@<TRIPOS>MOLECULE
*****
 39 44 0 0 0
SMALL
GASTEIGER

@<TRIPOS>ATOM
      1 C         140.6486  140.8293  168.2657 C.3     1  UNL1        0.0280
      2 C         140.6885  142.3020  167.9834 C.3     1  UNL1        0.0584
      3 C         140.6560  143.2841  169.1168 C.3     1  UNL1        0.0174
      4 C         141.1564  145.4721  158.8361 C.ar    1  UNL1        0.2057
      5 N         139.9724  145.5876  159.7498 N.ar    1  UNL1       -0.2121
      6 C         140.3395  144.9667  161.0650 C.ar    1  UNL1        0.1179
      7 C         139.5713  144.7915  162.3414 C.ar    1  UNL1        0.0178
      8 C         140.2142  144.1170  163.5170 C.ar    1  UNL1       -0.0233
      9 C         141.6250  143.6178  163.4161 C.ar    1  UNL1       -0.0256
     10 C         142.3932  143.7931  162.1398 C.ar    1  UNL1        0.0101
     11 C         143.8041  143.2939  162.0390 C.3     1  UNL1        0.0339
     12 C         141.7504  144.4676  160.9642 C.ar    1  UNL1        0.1600
     13 O         142.2553  144.7799  159.5866 O.2     1  UNL1       -0.4387
     14 C         142.4481  142.9230  164.4601 C.3     1  UNL1        0.0431
     15 C         142.0635  142.5557  165.8627 C.3     1  UNL1        0.0768
     16 N         140.7610  142.7926  166.5677 N.3     1  UNL1       -0.2733
     17 C         139.5212  143.4553  166.0444 C.3     1  UNL1        0.0768
     18 C         139.2778  144.0446  164.6867 C.3     1  UNL1        0.0434
     19 C         139.9932  146.4712  156.7388 C.3     1  UNL1        0.0102
     20 C         141.2288  145.9627  157.4205 C.3     1  UNL1        0.0853
     21 C         139.3360  140.1034  168.2784 C.3     1  UNL1        0.0665
     22 S         138.9652  139.2041  167.1368 S.3     1  UNL1       -0.0756
     23 C         139.0769  139.6990  165.7252 C.ar    1  UNL1        0.1932
     24 N         138.0115  140.4252  164.9585 N.ar    1  UNL1       -0.1221
     25 N         138.5499  140.7296  163.5919 N.ar    1  UNL1       -0.1282
     26 C         139.9479  140.1916  163.5140 C.ar    1  UNL1        0.1669
     27 N         140.2736  139.5547  164.8324 N.ar    1  UNL1       -0.2884
     28 C         141.5687  138.8900  165.1945 C.3     1  UNL1        0.1340
     29 C         140.8600  140.2757  162.3262 C.ar    1  UNL1        0.0374
     30 C         142.2508  139.7196  162.4076 C.ar    1  UNL1        0.0031
     31 C         143.1629  139.8038  161.2198 C.ar    1  UNL1        0.0016
     32 C         142.6843  140.4440  159.9505 C.ar    1  UNL1        0.0191
     33 C         141.2936  141.0001  159.8690 C.ar    1  UNL1        0.0810
     34 N         140.8150  141.6404  158.5998 N.ar    1  UNL1       -0.2497
     35 C         139.4243  142.1965  158.5184 C.ar    1  UNL1        0.0593
     36 C         138.9457  142.8367  157.2491 C.3     1  UNL1        0.0521
     37 C         138.5121  142.1123  159.7062 C.ar    1  UNL1        0.0147
     38 C         138.9907  141.4721  160.9754 C.ar    1  UNL1        0.0028
     39 C         140.3814  140.9160  161.0568 C.ar    1  UNL1        0.0206
@<TRIPOS>BOND
     1    19    20    1
     2    20     4    1
     3     4     5   ar
     4     5     6   ar
     5     6     7   ar
     6     7     8   ar
     7     8     9   ar
     8     9    10   ar
     9    10    11    1
    10    10    12   ar
    11    12    13   ar
    12     9    14    1
    13    14    15    1
    14    15    16    1
    15    16     2    1
    16     2     3    1
    17     2     1    1
    18     1    21    1
    19    21    22    1
    20    22    23    1
    21    23    24   ar
    22    24    25   ar
    23    25    26   ar
    24    26    29    1
    25    29    30   ar
    26    30    31   ar
    27    31    32   ar
    28    32    33   ar
    29    33    34   ar
    30    34    35   ar
    31    35    36    1
    32    35    37   ar
    33    37    38   ar
    34    38    39   ar
    35    26    27   ar
    36    27    28    1
    37    16    17    1
    38    17    18    1
    39    13     4   ar
    40    27    23   ar
    41    12     6   ar
    42    39    29   ar
    43    18     8    1
    44    39    33   ar
@<TRIPOS>MOLECULE
*****
 39 44 0 0 0
SMALL
GASTEIGER

@<TRIPOS>ATOM
      1 C         143.5495  142.9230  158.6443 C.3     1  UNL1        0.0280
      2 C         142.5384  143.6342  159.4940 C.3     1  UNL1        0.0584
      3 C         141.5508  144.5689  158.8605 C.3     1  UNL1        0.0174
      4 C         142.3862  142.1899  169.0769 C.ar    1  UNL1        0.2057
      5 N         143.5910  142.5481  168.2582 N.ar    1  UNL1       -0.2121
      6 C         143.1585  142.6740  166.8275 C.ar    1  UNL1        0.1179
      7 C         143.9150  143.0078  165.5759 C.ar    1  UNL1        0.0178
      8 C         143.1992  143.0612  164.2587 C.ar    1  UNL1       -0.0233
      9 C         141.7272  142.7808  164.1931 C.ar    1  UNL1       -0.0256
     10 C         140.9707  142.4470  165.4446 C.ar    1  UNL1        0.0101
     11 C         139.4986  142.1667  165.3789 C.3     1  UNL1        0.0339
     12 C         141.6864  142.3936  166.7618 C.ar    1  UNL1        0.1600
     13 O         141.2091  142.0944  168.1520 O.2     1  UNL1       -0.4387
     14 C         140.8277  142.7807  162.9926 C.3     1  UNL1        0.0431
     15 C         141.1783  143.0611  161.5613 C.3     1  UNL1        0.0768
     16 N         142.5148  143.4106  160.9771 N.3     1  UNL1       -0.2733
     17 C         143.8309  143.5663  161.6796 C.3     1  UNL1        0.0768
     18 C         144.1355  143.4108  163.1401 C.3     1  UNL1        0.0434
     19 C         141.6396  140.7814  171.1284 C.3     1  UNL1        0.0102
     20 C         142.3626  141.9664  170.5599 C.3     1  UNL1        0.0853
     21 C         143.1406  142.3337  157.3268 C.3     1  UNL1        0.0665
     22 S         142.8368  140.8686  157.2225 S.3     1  UNL1       -0.0756
     23 C         142.7179  140.0369  158.4651 C.ar    1  UNL1        0.1932
     24 N         143.7649  139.1115  159.0103 N.ar    1  UNL1       -0.1221
     25 N         143.2251  138.4873  160.2629 N.ar    1  UNL1       -0.1282
     26 C         141.8443  139.0270  160.4919 C.ar    1  UNL1        0.1669
     27 N         141.5309  139.9846  159.3808 N.ar    1  UNL1       -0.2884
     28 C         140.2545  140.7549  159.2146 C.3     1  UNL1        0.1340
     29 C         140.9365  138.6713  161.6318 C.ar    1  UNL1        0.0374
     30 C         139.5328  138.2180  161.3594 C.ar    1  UNL1        0.0031
     31 C         138.6250  137.8623  162.4993 C.ar    1  UNL1        0.0016
     32 C         139.1209  137.9600  163.9116 C.ar    1  UNL1        0.0191
     33 C         140.5246  138.4133  164.1840 C.ar    1  UNL1        0.0810
     34 N         141.0204  138.5110  165.5963 N.ar    1  UNL1       -0.2497
     35 C         142.4241  138.9644  165.8687 C.ar    1  UNL1        0.0593
     36 C         142.9199  139.0621  167.2810 C.3     1  UNL1        0.0521
     37 C         143.3319  139.3200  164.7288 C.ar    1  UNL1        0.0147
     38 C         142.8361  139.2223  163.3165 C.ar    1  UNL1        0.0028
     39 C         141.4324  138.7690  163.0441 C.ar    1  UNL1        0.0206
@<TRIPOS>BOND
     1    19    20    1
     2    20     4    1
     3     4     5   ar
     4     5     6   ar
     5     6     7   ar
     6     7     8   ar
     7     8     9   ar
     8     9    10   ar
     9    10    11    1
    10    10    12   ar
    11    12    13   ar
    12     9    14    1
    13    14    15    1
    14    15    16    1
    15    16     2    1
    16     2     3    1
    17     2     1    1
    18     1    21    1
    19    21    22    1
    20    22    23    1
    21    23    24   ar
    22    24    25   ar
    23    25    26   ar
    24    26    29    1
    25    29    30   ar
    26    30    31   ar
    27    31    32   ar
    28    32    33   ar
    29    33    34   ar
    30    34    35   ar
    31    35    36    1
    32    35    37   ar
    33    37    38   ar
    34    38    39   ar
    35    26    27   ar
    36    27    28    1
    37    16    17    1
    38    17    18    1
    39    13     4   ar
    40    27    23   ar
    41    12     6   ar
    42    39    29   ar
    43    18     8    1
    44    39    33   ar
@<TRIPOS>MOLECULE
*****
 39 44 0 0 0
SMALL
GASTEIGER

@<TRIPOS>ATOM
      1 C         140.2348  140.4862  169.4074 C.3     1  UNL1        0.0280
      2 C         141.3652  139.6411  168.8994 C.3     1  UNL1        0.0584
      3 C         142.3444  139.0401  169.8638 C.3     1  UNL1        0.0174
      4 C         142.3424  138.0646  159.3862 C.ar    1  UNL1        0.2057
      5 N         143.4473  138.0487  160.4007 N.ar    1  UNL1       -0.2121
      6 C         142.8475  138.3416  161.7439 C.ar    1  UNL1        0.1179
      7 C         143.4543  138.4544  163.1111 C.ar    1  UNL1        0.0178
      8 C         142.5855  138.7642  164.2940 C.ar    1  UNL1       -0.0233
      9 C         141.1100  138.9611  164.1098 C.ar    1  UNL1       -0.0256
     10 C         140.5032  138.8483  162.7427 C.ar    1  UNL1        0.0101
     11 C         139.0276  139.0452  162.5585 C.3     1  UNL1        0.0339
     12 C         141.3719  138.5385  161.5597 C.ar    1  UNL1        0.1600
     13 O         141.0598  138.3673  160.1026 O.2     1  UNL1       -0.4387
     14 C         140.0717  139.2747  165.1460 C.3     1  UNL1        0.0431
     15 C         140.2527  139.4687  166.6224 C.3     1  UNL1        0.0768
     16 N         141.5164  139.3972  167.4271 N.3     1  UNL1       -0.2733
     17 C         142.9115  139.1139  166.9543 C.3     1  UNL1        0.0768
     18 C         143.3873  138.8322  165.5599 C.3     1  UNL1        0.0434
     19 C         143.0884  138.8809  157.0352 C.3     1  UNL1        0.0102
     20 C         142.4937  137.8206  157.9139 C.3     1  UNL1        0.0853
     21 C         140.5171  141.8229  170.0267 C.3     1  UNL1        0.0665
     22 S         140.5213  143.0579  169.1756 S.3     1  UNL1       -0.0756
     23 C         140.7814  142.9525  167.7021 C.ar    1  UNL1        0.1932
     24 N         139.7636  143.1195  166.6130 N.ar    1  UNL1       -0.1221
     25 N         140.4582  142.9318  165.2967 N.ar    1  UNL1       -0.1282
     26 C         141.9052  142.6488  165.5724 C.ar    1  UNL1        0.1669
     27 N         142.1049  142.6616  167.0589 N.ar    1  UNL1       -0.2884
     28 C         143.4008  142.4250  167.7765 C.3     1  UNL1        0.1340
     29 C         142.9662  142.3971  164.5424 C.ar    1  UNL1        0.0374
     30 C         144.4045  142.2970  164.9562 C.ar    1  UNL1        0.0031
     31 C         145.4655  142.0454  163.9261 C.ar    1  UNL1        0.0016
     32 C         145.0881  141.8939  162.4822 C.ar    1  UNL1        0.0191
     33 C         143.6498  141.9940  162.0684 C.ar    1  UNL1        0.0810
     34 N         143.2724  141.8425  160.6246 N.ar    1  UNL1       -0.2497
     35 C         141.8341  141.9426  160.2108 C.ar    1  UNL1        0.0593
     36 C         141.4567  141.7911  158.7670 C.3     1  UNL1        0.0521
     37 C         140.7731  142.1943  161.2409 C.ar    1  UNL1        0.0147
     38 C         141.1505  142.3458  162.6847 C.ar    1  UNL1        0.0028
     39 C         142.5888  142.2456  163.0985 C.ar    1  UNL1        0.0206
@<TRIPOS>BOND
     1    19    20    1
     2    20     4    1
     3     4     5   ar
     4     5     6   ar
     5     6     7   ar
     6     7     8   ar
     7     8     9   ar
     8     9    10   ar
     9    10    11    1
    10    10    12   ar
    11    12    13   ar
    12     9    14    1
    13    14    15    1
    14    15    16    1
    15    16     2    1
    16     2     3    1
    17     2     1    1
    18     1    21    1
    19    21    22    1
    20    22    23    1
    21    23    24   ar
    22    24    25   ar
    23    25    26   ar
    24    26    29    1
    25    29    30   ar
    26    30    31   ar
    27    31    32   ar
    28    32    33   ar
    29    33    34   ar
    30    34    35   ar
    31    35    36    1
    32    35    37   ar
    33    37    38   ar
    34    38    39   ar
    35    26    27   ar
    36    27    28    1
    37    16    17    1
    38    17    18    1
    39    13     4   ar
    40    27    23   ar
    41    12     6   ar
    42    39    29   ar
    43    18     8    1
    44    39    33   ar
