@<TRIPOS>MOLECULE
*****
 33 37 0 0 0
SMALL
GASTEIGER

@<TRIPOS>ATOM
      1 N         139.9365  137.9565  162.5070 N.3     1  UNL1       -0.2695
      2 C         139.8764  137.7942  163.9971 C.3     1  UNL1        0.0939
      3 C         141.0937  138.0649  164.8306 C.3     1  UNL1        0.1107
      4 N         142.3711  138.4978  164.1742 N.am    1  UNL1       -0.2764
      5 C         143.5885  138.7684  165.0078 C.2     1  UNL1        0.2301
      6 O         144.8658  139.2013  164.3515 O.2     1  UNL1       -0.2745
      7 C         142.4312  138.6601  162.6842 C.3     1  UNL1        0.1107
      8 C         141.2139  138.3895  161.8506 C.3     1  UNL1        0.0939
      9 C         138.7191  137.6859  161.6734 C.3     1  UNL1        0.0769
     10 C         137.5863  138.6690  161.6590 C.3     1  UNL1        0.0436
     11 C         139.1752  143.2252  159.7310 C.3     1  UNL1        0.0312
     12 C         138.6553  142.4104  160.8781 C.ar    1  UNL1       -0.0161
     13 C         138.3807  140.9471  160.6951 C.ar    1  UNL1       -0.0083
     14 C         137.8609  140.1323  161.8421 C.ar    1  UNL1       -0.0213
     15 C         137.6155  140.7807  163.1722 C.ar    1  UNL1       -0.0047
     16 C         137.8900  142.2440  163.3553 C.ar    1  UNL1        0.0269
     17 C         138.4099  143.0588  162.2083 C.ar    1  UNL1        0.0712
     18 C         138.5865  144.4701  162.6847 C.2     1  UNL1        0.3410
     19 O         139.0862  145.6218  161.8638 O.2     1  UNL1       -0.2449
     20 O         138.1758  144.5275  164.1262 O.3     1  UNL1       -0.4404
     21 C         137.7453  143.1517  164.5407 C.3     1  UNL1        0.2356
     22 C         143.5283  138.6061  166.4978 C.3     1  UNL1        0.1116
     23 C         142.7667  139.5949  167.3298 C.ar    1  UNL1       -0.0130
     24 C         142.3104  139.2208  168.7089 C.ar    1  UNL1       -0.0022
     25 C         141.5487  140.2096  169.5409 C.ar    1  UNL1        0.0190
     26 C         141.2433  141.5724  168.9937 C.ar    1  UNL1        0.0862
     27 C         141.6996  141.9465  167.6147 C.ar    1  UNL1        0.0190
     28 C         142.4612  140.9578  166.7827 C.ar    1  UNL1       -0.0022
     29 N         140.4816  142.5612  169.8257 N.ar    1  UNL1       -0.1886
     30 C         140.5913  144.0548  169.7407 C.ar    1  UNL1        0.2258
     31 N         139.6540  144.6466  170.7512 N.ar    1  UNL1       -0.1045
     32 N         138.9650  143.5189  171.4608 N.ar    1  UNL1       -0.0222
     33 N         139.4765  142.2300  170.8888 N.ar    1  UNL1       -0.0385
@<TRIPOS>BOND
     1    11    12    1
     2    12    13   ar
     3    13    14   ar
     4    14    10    1
     5    10     9    1
     6     9     1    1
     7     1     2    1
     8     2     3    1
     9     3     4    1
    10     4     5   am
    11     5     6    2
    12     5    22    1
    13    22    23    1
    14    23    24   ar
    15    24    25   ar
    16    25    26   ar
    17    26    29    1
    18    29    30   ar
    19    30    31   ar
    20    31    32   ar
    21    32    33   ar
    22    26    27   ar
    23    27    28   ar
    24     4     7    1
    25     7     8    1
    26    14    15   ar
    27    15    16   ar
    28    16    17   ar
    29    17    18    1
    30    18    19    2
    31    18    20    1
    32    20    21    1
    33    17    12   ar
    34     8     1    1
    35    21    16    1
    36    28    23   ar
    37    33    29   ar
@<TRIPOS>MOLECULE
*****
 33 37 0 0 0
SMALL
GASTEIGER

@<TRIPOS>ATOM
      1 N         138.7671  140.8890  160.2174 N.3     1  UNL1       -0.2695
      2 C         137.9417  140.8398  161.4691 C.3     1  UNL1        0.0939
      3 C         138.2445  139.8209  162.5275 C.3     1  UNL1        0.1107
      4 N         139.3726  138.8514  162.3344 N.am    1  UNL1       -0.2764
      5 C         139.6754  137.8325  163.3929 C.2     1  UNL1        0.2301
      6 O         140.8034  136.8630  163.1999 O.2     1  UNL1       -0.2745
      7 C         140.1979  138.9006  161.0829 C.3     1  UNL1        0.1107
      8 C         139.8952  139.9193  160.0244 C.3     1  UNL1        0.0939
      9 C         138.4643  141.9077  159.1589 C.3     1  UNL1        0.0769
     10 C         139.2408  143.1901  159.1084 C.3     1  UNL1        0.0436
     11 C         140.6807  145.1482  163.7011 C.3     1  UNL1        0.0312
     12 C         141.0269  144.4411  162.4244 C.ar    1  UNL1       -0.0161
     13 C         139.9608  144.1691  161.4047 C.ar    1  UNL1       -0.0083
     14 C         140.3069  143.4621  160.1280 C.ar    1  UNL1       -0.0213
     15 C         141.7191  143.0268  159.8708 C.ar    1  UNL1       -0.0047
     16 C         142.7852  143.2987  160.8903 C.ar    1  UNL1        0.0269
     17 C         142.4391  144.0058  162.1671 C.ar    1  UNL1        0.0712
     18 C         143.6930  144.1347  162.9803 C.2     1  UNL1        0.3410
     19 O         143.8059  144.7780  164.3306 O.2     1  UNL1       -0.2449
     20 O         144.8140  143.5072  162.2060 O.3     1  UNL1       -0.4404
     21 C         144.2530  142.9905  160.9143 C.3     1  UNL1        0.2356
     22 C         138.8500  137.7834  164.6445 C.3     1  UNL1        0.1116
     23 C         139.2250  138.6308  165.8239 C.ar    1  UNL1       -0.0130
     24 C         140.5809  139.2693  165.8879 C.ar    1  UNL1       -0.0022
     25 C         140.9559  140.1168  167.0675 C.ar    1  UNL1        0.0190
     26 C         139.9751  140.3256  168.1829 C.ar    1  UNL1        0.0862
     27 C         138.6193  139.6871  168.1190 C.ar    1  UNL1        0.0190
     28 C         138.2443  138.8397  166.9395 C.ar    1  UNL1       -0.0022
     29 N         140.3501  141.1731  169.3625 N.ar    1  UNL1       -0.1886
     30 C         141.1566  142.4371  169.3193 C.ar    1  UNL1        0.2258
     31 N         141.2893  142.9504  170.7225 N.ar    1  UNL1       -0.1045
     32 N         140.5649  142.0037  171.6329 N.ar    1  UNL1       -0.0222
     33 N         139.9844  140.9052  170.7924 N.ar    1  UNL1       -0.0385
@<TRIPOS>BOND
     1    11    12    1
     2    12    13   ar
     3    13    14   ar
     4    14    10    1
     5    10     9    1
     6     9     1    1
     7     1     2    1
     8     2     3    1
     9     3     4    1
    10     4     5   am
    11     5     6    2
    12     5    22    1
    13    22    23    1
    14    23    24   ar
    15    24    25   ar
    16    25    26   ar
    17    26    29    1
    18    29    30   ar
    19    30    31   ar
    20    31    32   ar
    21    32    33   ar
    22    26    27   ar
    23    27    28   ar
    24     4     7    1
    25     7     8    1
    26    14    15   ar
    27    15    16   ar
    28    16    17   ar
    29    17    18    1
    30    18    19    2
    31    18    20    1
    32    20    21    1
    33    17    12   ar
    34     8     1    1
    35    21    16    1
    36    28    23   ar
    37    33    29   ar
@<TRIPOS>MOLECULE
*****
 33 37 0 0 0
SMALL
GASTEIGER

@<TRIPOS>ATOM
      1 N         141.3558  140.5471  160.0952 N.3     1  UNL1       -0.2695
      2 C         141.4342  139.6346  161.2832 C.3     1  UNL1        0.0939
      3 C         140.3179  139.6101  162.2849 C.3     1  UNL1        0.1107
      4 N         139.1234  140.4979  162.0987 N.am    1  UNL1       -0.2764
      5 C         138.0072  140.4734  163.1005 C.2     1  UNL1        0.2301
      6 O         136.8127  141.3612  162.9142 O.2     1  UNL1       -0.2745
      7 C         139.0450  141.4104  160.9107 C.3     1  UNL1        0.1107
      8 C         140.1612  141.4350  159.9090 C.3     1  UNL1        0.0939
      9 C         142.4719  140.5717  159.0934 C.3     1  UNL1        0.0769
     10 C         143.7231  141.3465  159.3835 C.3     1  UNL1        0.0436
     11 C         145.8771  141.4427  164.1113 C.3     1  UNL1        0.0312
     12 C         144.9786  142.0591  163.0804 C.ar    1  UNL1       -0.0161
     13 C         144.8001  141.3947  161.7474 C.ar    1  UNL1       -0.0083
     14 C         143.9017  142.0110  160.7165 C.ar    1  UNL1       -0.0213
     15 C         143.1817  143.2918  161.0184 C.ar    1  UNL1       -0.0047
     16 C         143.3602  143.9562  162.3513 C.ar    1  UNL1        0.0269
     17 C         144.2586  143.3399  163.3823 C.ar    1  UNL1        0.0712
     18 C         144.2390  144.2175  164.5986 C.2     1  UNL1        0.3410
     19 O         144.9969  143.9784  165.8707 O.2     1  UNL1       -0.2449
     20 O         143.3284  145.3763  164.3193 O.3     1  UNL1       -0.4404
     21 C         142.7852  145.2148  162.9304 C.3     1  UNL1        0.2356
     22 C         138.0856  139.5610  164.2884 C.3     1  UNL1        0.1116
     23 C         138.6768  140.0547  165.5756 C.ar    1  UNL1       -0.0130
     24 C         138.5155  139.2511  166.8319 C.ar    1  UNL1       -0.0022
     25 C         139.1068  139.7448  168.1191 C.ar    1  UNL1        0.0190
     26 C         139.8592  141.0421  168.1498 C.ar    1  UNL1        0.0862
     27 C         140.0204  141.8457  166.8936 C.ar    1  UNL1        0.0190
     28 C         139.4292  141.3519  165.6064 C.ar    1  UNL1       -0.0022
     29 N         140.4504  141.5359  169.4370 N.ar    1  UNL1       -0.1886
     30 C         141.8416  142.0651  169.6226 C.ar    1  UNL1        0.2258
     31 N         142.0052  142.4434  171.0648 N.ar    1  UNL1       -0.1045
     32 N         140.7150  142.1480  171.7706 N.ar    1  UNL1       -0.0222
     33 N         139.7541  141.5871  170.7646 N.ar    1  UNL1       -0.0385
@<TRIPOS>BOND
     1    11    12    1
     2    12    13   ar
     3    13    14   ar
     4    14    10    1
     5    10     9    1
     6     9     1    1
     7     1     2    1
     8     2     3    1
     9     3     4    1
    10     4     5   am
    11     5     6    2
    12     5    22    1
    13    22    23    1
    14    23    24   ar
    15    24    25   ar
    16    25    26   ar
    17    26    29    1
    18    29    30   ar
    19    30    31   ar
    20    31    32   ar
    21    32    33   ar
    22    26    27   ar
    23    27    28   ar
    24     4     7    1
    25     7     8    1
    26    14    15   ar
    27    15    16   ar
    28    16    17   ar
    29    17    18    1
    30    18    19    2
    31    18    20    1
    32    20    21    1
    33    17    12   ar
    34     8     1    1
    35    21    16    1
    36    28    23   ar
    37    33    29   ar
@<TRIPOS>MOLECULE
*****
 33 37 0 0 0
SMALL
GASTEIGER

@<TRIPOS>ATOM
      1 N         142.5457  138.8755  160.1076 N.3     1  UNL1       -0.2695
      2 C         142.1289  138.0668  161.3003 C.3     1  UNL1        0.0939
      3 C         142.7413  138.3393  162.6422 C.3     1  UNL1        0.1107
      4 N         143.7704  139.4203  162.7915 N.am    1  UNL1       -0.2764
      5 C         144.3828  139.6927  164.1334 C.2     1  UNL1        0.2301
      6 O         145.4118  140.7737  164.2827 O.2     1  UNL1       -0.2745
      7 C         144.1871  140.2290  161.5989 C.3     1  UNL1        0.1107
      8 C         143.5747  139.9566  160.2569 C.3     1  UNL1        0.0939
      9 C         141.9333  138.6032  158.7656 C.3     1  UNL1        0.0769
     10 C         140.6038  139.2012  158.4126 C.3     1  UNL1        0.0436
     11 C         140.0149  144.1531  159.8732 C.3     1  UNL1        0.0312
     12 C         139.6840  142.7001  160.0445 C.ar    1  UNL1       -0.0161
     13 C         140.3093  141.6771  159.1430 C.ar    1  UNL1       -0.0083
     14 C         139.9785  140.2242  159.3142 C.ar    1  UNL1       -0.0213
     15 C         139.0223  139.7940  160.3869 C.ar    1  UNL1       -0.0047
     16 C         138.3970  140.8169  161.2884 C.ar    1  UNL1        0.0269
     17 C         138.7278  142.2699  161.1172 C.ar    1  UNL1        0.0712
     18 C         137.9617  143.0444  162.1483 C.2     1  UNL1        0.3410
     19 O         137.9942  144.5320  162.3377 O.2     1  UNL1       -0.2449
     20 O         137.1574  142.0700  162.9568 O.3     1  UNL1       -0.4404
     21 C         137.4264  140.6933  162.4253 C.3     1  UNL1        0.2356
     22 C         143.9660  138.8841  165.3261 C.3     1  UNL1        0.1116
     23 C         143.2626  139.5470  166.4731 C.ar    1  UNL1       -0.0130
     24 C         143.0613  138.8035  167.7602 C.ar    1  UNL1       -0.0022
     25 C         142.3578  139.4665  168.9073 C.ar    1  UNL1        0.0190
     26 C         141.8557  140.8729  168.7671 C.ar    1  UNL1        0.0862
     27 C         142.0570  141.6165  167.4800 C.ar    1  UNL1        0.0190
     28 C         142.7604  140.9535  166.3330 C.ar    1  UNL1       -0.0022
     29 N         141.1522  141.5360  169.9141 N.ar    1  UNL1       -0.1886
     30 C         140.0815  142.5809  169.8065 C.ar    1  UNL1        0.2258
     31 N         139.6636  142.9612  171.1960 N.ar    1  UNL1       -0.1045
     32 N         140.4760  142.1513  172.1624 N.ar    1  UNL1       -0.0222
     33 N         141.3961  141.2705  171.3702 N.ar    1  UNL1       -0.0385
@<TRIPOS>BOND
     1    11    12    1
     2    12    13   ar
     3    13    14   ar
     4    14    10    1
     5    10     9    1
     6     9     1    1
     7     1     2    1
     8     2     3    1
     9     3     4    1
    10     4     5   am
    11     5     6    2
    12     5    22    1
    13    22    23    1
    14    23    24   ar
    15    24    25   ar
    16    25    26   ar
    17    26    29    1
    18    29    30   ar
    19    30    31   ar
    20    31    32   ar
    21    32    33   ar
    22    26    27   ar
    23    27    28   ar
    24     4     7    1
    25     7     8    1
    26    14    15   ar
    27    15    16   ar
    28    16    17   ar
    29    17    18    1
    30    18    19    2
    31    18    20    1
    32    20    21    1
    33    17    12   ar
    34     8     1    1
    35    21    16    1
    36    28    23   ar
    37    33    29   ar
@<TRIPOS>MOLECULE
*****
 33 37 0 0 0
SMALL
GASTEIGER

@<TRIPOS>ATOM
      1 N         138.6551  140.2635  159.7885 N.3     1  UNL1       -0.2695
      2 C         137.7864  140.2819  161.0114 C.3     1  UNL1        0.0939
      3 C         138.1357  139.4254  162.1923 C.3     1  UNL1        0.1107
      4 N         139.3533  138.5506  162.1504 N.am    1  UNL1       -0.2764
      5 C         139.7025  137.6941  163.3314 C.2     1  UNL1        0.2301
      6 O         140.9202  136.8193  163.2895 O.2     1  UNL1       -0.2745
      7 C         140.2219  138.5321  160.9277 C.3     1  UNL1        0.1107
      8 C         139.8728  139.3886  159.7467 C.3     1  UNL1        0.0939
      9 C         138.3059  141.1199  158.6076 C.3     1  UNL1        0.0769
     10 C         138.7987  142.5348  158.5355 C.3     1  UNL1        0.0436
     11 C         143.8430  142.9178  159.7225 C.3     1  UNL1        0.0312
     12 C         142.4059  143.1907  160.0548 C.ar    1  UNL1       -0.0161
     13 C         141.3208  142.7263  159.1290 C.ar    1  UNL1       -0.0083
     14 C         139.8838  142.9992  159.4612 C.ar    1  UNL1       -0.0213
     15 C         139.5318  143.7364  160.7192 C.ar    1  UNL1       -0.0047
     16 C         140.6168  144.2008  161.6450 C.ar    1  UNL1        0.0269
     17 C         142.0539  143.9279  161.3128 C.ar    1  UNL1        0.0712
     18 C         142.9005  144.5034  162.4092 C.2     1  UNL1        0.3410
     19 O         144.3980  144.4583  162.4828 O.2     1  UNL1       -0.2449
     20 O         141.9866  145.1319  163.4190 O.3     1  UNL1       -0.4404
     21 C         140.5752  144.9449  162.9467 C.3     1  UNL1        0.2356
     22 C         138.8339  137.7126  164.5542 C.3     1  UNL1        0.1116
     23 C         139.1335  138.6662  165.6725 C.ar    1  UNL1       -0.0130
     24 C         140.2839  139.6218  165.5555 C.ar    1  UNL1       -0.0022
     25 C         140.5834  140.5755  166.6740 C.ar    1  UNL1        0.0190
     26 C         139.7326  140.5736  167.9093 C.ar    1  UNL1        0.0862
     27 C         138.5822  139.6180  168.0263 C.ar    1  UNL1        0.0190
     28 C         138.2827  138.6644  166.9079 C.ar    1  UNL1       -0.0022
     29 N         140.0321  141.5273  169.0278 N.ar    1  UNL1       -0.1886
     30 C         140.9296  142.7264  168.9475 C.ar    1  UNL1        0.2258
     31 N         140.9388  143.3894  170.2930 N.ar    1  UNL1       -0.1045
     32 N         140.0469  142.6000  171.2048 N.ar    1  UNL1       -0.0222
     33 N         139.4865  141.4492  170.4229 N.ar    1  UNL1       -0.0385
@<TRIPOS>BOND
     1    11    12    1
     2    12    13   ar
     3    13    14   ar
     4    14    10    1
     5    10     9    1
     6     9     1    1
     7     1     2    1
     8     2     3    1
     9     3     4    1
    10     4     5   am
    11     5     6    2
    12     5    22    1
    13    22    23    1
    14    23    24   ar
    15    24    25   ar
    16    25    26   ar
    17    26    29    1
    18    29    30   ar
    19    30    31   ar
    20    31    32   ar
    21    32    33   ar
    22    26    27   ar
    23    27    28   ar
    24     4     7    1
    25     7     8    1
    26    14    15   ar
    27    15    16   ar
    28    16    17   ar
    29    17    18    1
    30    18    19    2
    31    18    20    1
    32    20    21    1
    33    17    12   ar
    34     8     1    1
    35    21    16    1
    36    28    23   ar
    37    33    29   ar
@<TRIPOS>MOLECULE
*****
 33 37 0 0 0
SMALL
GASTEIGER

@<TRIPOS>ATOM
      1 N         143.3524  139.9930  160.1992 N.3     1  UNL1       -0.2695
      2 C         143.9553  139.9221  161.5710 C.3     1  UNL1        0.0939
      3 C         143.2122  139.2419  162.6824 C.3     1  UNL1        0.1107
      4 N         141.8666  138.6327  162.4222 N.am    1  UNL1       -0.2764
      5 C         141.1235  137.9525  163.5337 C.2     1  UNL1        0.2301
      6 O         139.7778  137.3433  163.2735 O.2     1  UNL1       -0.2745
      7 C         141.2637  138.7036  161.0505 C.3     1  UNL1        0.1107
      8 C         142.0067  139.3838  159.9390 C.3     1  UNL1        0.0939
      9 C         144.0954  140.6732  159.0877 C.3     1  UNL1        0.0769
     10 C         144.3527  142.1496  159.1510 C.3     1  UNL1        0.0436
     11 C         140.2276  145.2237  158.4196 C.3     1  UNL1        0.0312
     12 C         141.2422  144.6075  159.3367 C.ar    1  UNL1       -0.0161
     13 C         142.2902  143.6866  158.7854 C.ar    1  UNL1       -0.0083
     14 C         143.3047  143.0705  159.7023 C.ar    1  UNL1       -0.0213
     15 C         143.2715  143.3752  161.1707 C.ar    1  UNL1       -0.0047
     16 C         142.2236  144.2960  161.7220 C.ar    1  UNL1        0.0269
     17 C         141.2090  144.9122  160.8050 C.ar    1  UNL1        0.0712
     18 C         140.3018  145.7756  161.6306 C.2     1  UNL1        0.3410
     19 O         139.1440  146.5802  161.1188 O.2     1  UNL1       -0.2449
     20 O         140.7558  145.6929  163.0579 O.3     1  UNL1       -0.4404
     21 C         141.9435  144.7785  163.1144 C.3     1  UNL1        0.2356
     22 C         141.7264  137.8816  164.9054 C.3     1  UNL1        0.1116
     23 C         141.3696  138.9119  165.9355 C.ar    1  UNL1       -0.0130
     24 C         139.9452  139.3560  166.0902 C.ar    1  UNL1       -0.0022
     25 C         139.5885  140.3864  167.1204 C.ar    1  UNL1        0.0190
     26 C         140.6562  140.9725  167.9958 C.ar    1  UNL1        0.0862
     27 C         142.0806  140.5285  167.8411 C.ar    1  UNL1        0.0190
     28 C         142.4373  139.4982  166.8110 C.ar    1  UNL1       -0.0022
     29 N         140.2995  142.0029  169.0260 N.ar    1  UNL1       -0.1886
     30 C         139.5846  141.7459  170.3194 C.ar    1  UNL1        0.2258
     31 N         139.4384  143.0553  171.0363 N.ar    1  UNL1       -0.1045
     32 N         140.0630  144.1216  170.1861 N.ar    1  UNL1       -0.0222
     33 N         140.5952  143.4712  168.9436 N.ar    1  UNL1       -0.0385
@<TRIPOS>BOND
     1    11    12    1
     2    12    13   ar
     3    13    14   ar
     4    14    10    1
     5    10     9    1
     6     9     1    1
     7     1     2    1
     8     2     3    1
     9     3     4    1
    10     4     5   am
    11     5     6    2
    12     5    22    1
    13    22    23    1
    14    23    24   ar
    15    24    25   ar
    16    25    26   ar
    17    26    29    1
    18    29    30   ar
    19    30    31   ar
    20    31    32   ar
    21    32    33   ar
    22    26    27   ar
    23    27    28   ar
    24     4     7    1
    25     7     8    1
    26    14    15   ar
    27    15    16   ar
    28    16    17   ar
    29    17    18    1
    30    18    19    2
    31    18    20    1
    32    20    21    1
    33    17    12   ar
    34     8     1    1
    35    21    16    1
    36    28    23   ar
    37    33    29   ar
@<TRIPOS>MOLECULE
*****
 33 37 0 0 0
SMALL
GASTEIGER

@<TRIPOS>ATOM
      1 N         142.0014  141.3570  159.5879 N.3     1  UNL1       -0.2695
      2 C         141.7768  140.1988  160.5144 C.3     1  UNL1        0.0939
      3 C         142.7272  139.9501  161.6480 C.3     1  UNL1        0.1107
      4 N         143.9019  140.8594  161.8551 N.am    1  UNL1       -0.2764
      5 C         144.8522  140.6106  162.9888 C.2     1  UNL1        0.2301
      6 O         146.0270  141.5199  163.1959 O.2     1  UNL1       -0.2745
      7 C         144.1264  142.0175  160.9287 C.3     1  UNL1        0.1107
      8 C         143.1762  142.2663  159.7951 C.3     1  UNL1        0.0939
      9 C         141.0511  141.6057  158.4543 C.3     1  UNL1        0.0769
     10 C         139.7759  142.3577  158.6959 C.3     1  UNL1        0.0436
     11 C         140.1519  145.9026  162.4766 C.3     1  UNL1        0.0312
     12 C         139.6183  144.5954  161.9698 C.ar    1  UNL1       -0.0161
     13 C         139.9639  144.1301  160.5863 C.ar    1  UNL1       -0.0083
     14 C         139.4303  142.8231  160.0795 C.ar    1  UNL1       -0.0213
     15 C         138.5511  141.9813  160.9561 C.ar    1  UNL1       -0.0047
     16 C         138.2055  142.4466  162.3396 C.ar    1  UNL1        0.0269
     17 C         138.7391  143.7537  162.8464 C.ar    1  UNL1        0.0712
     18 C         138.2315  143.9509  164.2441 C.2     1  UNL1        0.3410
     19 O         138.5205  145.1269  165.1293 O.2     1  UNL1       -0.2449
     20 O         137.3842  142.7658  164.6010 O.3     1  UNL1       -0.4404
     21 C         137.3682  141.8360  163.4240 C.3     1  UNL1        0.2356
     22 C         144.6277  139.4525  163.9152 C.3     1  UNL1        0.1116
     23 C         143.9062  139.6598  165.2138 C.ar    1  UNL1       -0.0130
     24 C         143.7341  138.5147  166.1674 C.ar    1  UNL1       -0.0022
     25 C         143.0126  138.7222  167.4661 C.ar    1  UNL1        0.0190
     26 C         142.4631  140.0745  167.8110 C.ar    1  UNL1        0.0862
     27 C         142.6351  141.2196  166.8575 C.ar    1  UNL1        0.0190
     28 C         143.3566  141.0122  165.5589 C.ar    1  UNL1       -0.0022
     29 N         141.7416  140.2820  169.1097 N.ar    1  UNL1       -0.1886
     30 C         142.2912  140.9706  170.3236 C.ar    1  UNL1        0.2258
     31 N         141.2330  140.9514  171.3865 N.ar    1  UNL1       -0.1045
     32 N         140.0293  140.2508  170.8295 N.ar    1  UNL1       -0.0222
     33 N         140.3436  139.8371  169.4224 N.ar    1  UNL1       -0.0385
@<TRIPOS>BOND
     1    11    12    1
     2    12    13   ar
     3    13    14   ar
     4    14    10    1
     5    10     9    1
     6     9     1    1
     7     1     2    1
     8     2     3    1
     9     3     4    1
    10     4     5   am
    11     5     6    2
    12     5    22    1
    13    22    23    1
    14    23    24   ar
    15    24    25   ar
    16    25    26   ar
    17    26    29    1
    18    29    30   ar
    19    30    31   ar
    20    31    32   ar
    21    32    33   ar
    22    26    27   ar
    23    27    28   ar
    24     4     7    1
    25     7     8    1
    26    14    15   ar
    27    15    16   ar
    28    16    17   ar
    29    17    18    1
    30    18    19    2
    31    18    20    1
    32    20    21    1
    33    17    12   ar
    34     8     1    1
    35    21    16    1
    36    28    23   ar
    37    33    29   ar
@<TRIPOS>MOLECULE
*****
 33 37 0 0 0
SMALL
GASTEIGER

@<TRIPOS>ATOM
      1 N         142.8929  138.1509  159.1681 N.3     1  UNL1       -0.2695
      2 C         143.2984  137.5655  160.4884 C.3     1  UNL1        0.0939
      3 C         143.9111  138.4416  161.5406 C.3     1  UNL1        0.1107
      4 N         144.1183  139.9028  161.2726 N.am    1  UNL1       -0.2764
      5 C         144.7310  140.7788  162.3249 C.2     1  UNL1        0.2301
      6 O         144.9382  142.2400  162.0569 O.2     1  UNL1       -0.2745
      7 C         143.7128  140.4881  159.9524 C.3     1  UNL1        0.1107
      8 C         143.1001  139.6121  158.9002 C.3     1  UNL1        0.0939
      9 C         142.2801  137.2749  158.1159 C.3     1  UNL1        0.0769
     10 C         143.1501  136.6254  157.0808 C.3     1  UNL1        0.0436
     11 C         144.8980  131.8085  157.9427 C.3     1  UNL1        0.0312
     12 C         143.9302  132.7389  157.2735 C.ar    1  UNL1       -0.0161
     13 C         144.0240  134.2170  157.5117 C.ar    1  UNL1       -0.0083
     14 C         143.0563  135.1474  156.8426 C.ar    1  UNL1       -0.0213
     15 C         141.9948  134.5999  155.9352 C.ar    1  UNL1       -0.0047
     16 C         141.9010  133.1219  155.6969 C.ar    1  UNL1        0.0269
     17 C         142.8687  132.1914  156.3661 C.ar    1  UNL1        0.0712
     18 C         142.5334  130.7917  155.9438 C.2     1  UNL1        0.3410
     19 O         143.2476  129.5454  156.3759 O.2     1  UNL1       -0.2449
     20 O         141.3584  130.8571  155.0137 O.3     1  UNL1       -0.4404
     21 C         140.9676  132.2973  154.8611 C.3     1  UNL1        0.2356
     22 C         145.1365  140.1935  163.6451 C.3     1  UNL1        0.1116
     23 C         144.1471  140.1240  164.7703 C.ar    1  UNL1       -0.0130
     24 C         143.4283  141.3635  165.2147 C.ar    1  UNL1       -0.0022
     25 C         142.4388  141.2939  166.3399 C.ar    1  UNL1        0.0190
     26 C         142.1681  139.9851  167.0207 C.ar    1  UNL1        0.0862
     27 C         142.8869  138.7457  166.5764 C.ar    1  UNL1        0.0190
     28 C         143.8763  138.8152  165.4512 C.ar    1  UNL1       -0.0022
     29 N         141.1786  139.9155  168.1460 N.ar    1  UNL1       -0.1886
     30 C         139.6936  140.0893  168.0263 C.ar    1  UNL1        0.2258
     31 N         139.0977  139.9411  169.3948 N.ar    1  UNL1       -0.1045
     32 N         140.2145  139.6757  170.3604 N.ar    1  UNL1       -0.0222
     33 N         141.5006  139.6598  169.5886 N.ar    1  UNL1       -0.0385
@<TRIPOS>BOND
     1    11    12    1
     2    12    13   ar
     3    13    14   ar
     4    14    10    1
     5    10     9    1
     6     9     1    1
     7     1     2    1
     8     2     3    1
     9     3     4    1
    10     4     5   am
    11     5     6    2
    12     5    22    1
    13    22    23    1
    14    23    24   ar
    15    24    25   ar
    16    25    26   ar
    17    26    29    1
    18    29    30   ar
    19    30    31   ar
    20    31    32   ar
    21    32    33   ar
    22    26    27   ar
    23    27    28   ar
    24     4     7    1
    25     7     8    1
    26    14    15   ar
    27    15    16   ar
    28    16    17   ar
    29    17    18    1
    30    18    19    2
    31    18    20    1
    32    20    21    1
    33    17    12   ar
    34     8     1    1
    35    21    16    1
    36    28    23   ar
    37    33    29   ar
@<TRIPOS>MOLECULE
*****
 33 37 0 0 0
SMALL
GASTEIGER

@<TRIPOS>ATOM
      1 N         141.7920  139.3098  160.2670 N.3     1  UNL1       -0.2695
      2 C         141.4335  138.5737  161.5239 C.3     1  UNL1        0.0939
      3 C         142.2947  138.7102  162.7444 C.3     1  UNL1        0.1107
      4 N         143.5143  139.5826  162.7081 N.am    1  UNL1       -0.2764
      5 C         144.3755  139.7190  163.9287 C.2     1  UNL1        0.2301
      6 O         145.5951  140.5914  163.8925 O.2     1  UNL1       -0.2745
      7 C         143.8728  140.3186  161.4513 C.3     1  UNL1        0.1107
      8 C         143.0117  140.1823  160.2307 C.3     1  UNL1        0.0939
      9 C         140.9309  139.1735  159.0464 C.3     1  UNL1        0.0769
     10 C         139.8274  140.1575  158.7933 C.3     1  UNL1        0.0436
     11 C         137.2868  141.4207  163.1465 C.3     1  UNL1        0.0312
     12 C         138.1993  141.8007  162.0182 C.ar    1  UNL1       -0.0161
     13 C         138.5572  140.7891  160.9699 C.ar    1  UNL1       -0.0083
     14 C         139.4696  141.1690  159.8416 C.ar    1  UNL1       -0.0213
     15 C         140.0242  142.5604  159.7615 C.ar    1  UNL1       -0.0047
     16 C         139.6664  143.5719  160.8097 C.ar    1  UNL1        0.0269
     17 C         138.7539  143.1920  161.9381 C.ar    1  UNL1        0.0712
     18 C         138.5800  144.3940  162.8184 C.2     1  UNL1        0.3410
     19 O         137.7474  144.4614  164.0642 O.2     1  UNL1       -0.2449
     20 O         139.3850  145.5168  162.2341 O.3     1  UNL1       -0.4404
     21 C         140.0564  145.0087  160.9927 C.3     1  UNL1        0.2356
     22 C         144.0170  138.9829  165.1856 C.3     1  UNL1        0.1116
     23 C         143.2917  139.6933  166.2898 C.ar    1  UNL1       -0.0130
     24 C         142.9055  138.9492  167.5337 C.ar    1  UNL1       -0.0022
     25 C         142.1802  139.6596  168.6379 C.ar    1  UNL1        0.0190
     26 C         141.8411  141.1140  168.4982 C.ar    1  UNL1        0.0862
     27 C         142.2273  141.8581  167.2544 C.ar    1  UNL1        0.0190
     28 C         142.9526  141.1478  166.1501 C.ar    1  UNL1       -0.0022
     29 N         141.1158  141.8245  169.6024 N.ar    1  UNL1       -0.1886
     30 C         141.1060  141.4279  171.0490 C.ar    1  UNL1        0.2258
     31 N         140.2570  142.4146  171.7944 N.ar    1  UNL1       -0.1045
     32 N         139.7421  143.4210  170.8086 N.ar    1  UNL1       -0.0222
     33 N         140.2728  143.0564  169.4538 N.ar    1  UNL1       -0.0385
@<TRIPOS>BOND
     1    11    12    1
     2    12    13   ar
     3    13    14   ar
     4    14    10    1
     5    10     9    1
     6     9     1    1
     7     1     2    1
     8     2     3    1
     9     3     4    1
    10     4     5   am
    11     5     6    2
    12     5    22    1
    13    22    23    1
    14    23    24   ar
    15    24    25   ar
    16    25    26   ar
    17    26    29    1
    18    29    30   ar
    19    30    31   ar
    20    31    32   ar
    21    32    33   ar
    22    26    27   ar
    23    27    28   ar
    24     4     7    1
    25     7     8    1
    26    14    15   ar
    27    15    16   ar
    28    16    17   ar
    29    17    18    1
    30    18    19    2
    31    18    20    1
    32    20    21    1
    33    17    12   ar
    34     8     1    1
    35    21    16    1
    36    28    23   ar
    37    33    29   ar
