@<TRIPOS>MOLECULE
*****
 38 41 0 0 0
SMALL
GASTEIGER

@<TRIPOS>ATOM
      1 O         138.9464  138.6715  159.7867 O.2     1  UNL1       -0.2701
      2 C         140.1644  139.1768  159.0718 C.2     1  UNL1        0.2474
      3 N         140.6501  140.5752  159.3139 N.am    1  UNL1       -0.2986
      4 H         141.4495  140.9068  158.8447 H       1  UNL1        0.1498
      5 C         139.9177  141.4684  160.2710 C.3     1  UNL1        0.1200
      6 C         138.8981  142.4416  159.7581 C.3     1  UNL1        0.2250
      7 O         138.1659  143.3347  160.7152 O.3     1  UNL1       -0.4740
      8 C         138.4531  143.2545  162.1853 C.ar    1  UNL1        0.1346
      9 C         137.7208  144.1477  163.1424 C.ar    1  UNL1        0.0366
     10 C         138.0081  144.0675  164.6124 C.ar    1  UNL1        0.0031
     11 C         139.0277  143.0942  165.1253 C.ar    1  UNL1       -0.0001
     12 C         139.7600  142.2011  164.1682 C.ar    1  UNL1        0.0005
     13 C         139.4727  142.2813  162.6982 C.ar    1  UNL1        0.0136
     14 C         140.2050  141.3882  161.7411 C.3     1  UNL1        0.0528
     15 C         140.7796  141.2278  164.6812 C.ar    1  UNL1        0.0190
     16 C         140.3416  139.9023  165.2301 C.ar    1  UNL1        0.0028
     17 C         141.3612  138.9290  165.7430 C.ar    1  UNL1        0.0172
     18 CA        142.8188  139.2812  165.7071 C.ar    1  UNL1        0.0885
     19 N         143.2568  140.6067  165.1582 N.ar    1  UNL1       -0.2457
     20 C         142.2373  141.5800  164.6453 C.ar    1  UNL1        0.0985
     21 C         143.8385  138.3079  166.2200 C.3     1  UNL1        0.1829
     22 O         143.8408  137.9179  167.6684 O.3     1  UNL1       -0.3760
     23 H         144.0660  138.6899  168.2108 H       1  UNL1        0.2110
     24 C         140.8968  138.2837  158.1147 C.ar    1  UNL1        0.0727
     25 C         140.1447  137.5663  157.0332 C.ar    1  UNL1        0.0109
     26 C         140.8770  136.6732  156.0761 C.ar    1  UNL1        0.0579
     27 C         142.3615  136.4975  156.2006 C.ar    1  UNL1        0.2249
     28 N         143.1136  137.2148  157.2821 N.ar    1  UNL1       -0.2100
     29 C         142.3812  138.1079  158.2391 C.ar    1  UNL1        0.1065
     30 O         143.0938  135.6043  155.2435 O.3     1  UNL1       -0.4575
     31 C         142.3264  134.7167  154.3091 C.3     1  UNL1        0.2390
     32 C         141.9268  133.3377  154.7434 C.3     1  UNL1        0.1897
     33 O         141.9332  132.9787  156.1998 O.3     1  UNL1       -0.3417
     34 C         142.9645  132.0293  156.7337 C.3     1  UNL1        0.2459
     35 C         144.1397  132.5542  157.5042 C.3     1  UNL1        0.4248
     36 F         145.3149  133.0789  158.2746 F       1  UNL1       -0.1674
     37 F         143.3273  133.7386  157.9367 F       1  UNL1       -0.1674
     38 F         144.9522  131.3698  157.0717 F       1  UNL1       -0.1674
@<TRIPOS>BOND
     1     1     2    2
     2     2     3   am
     3     5     3    1
     4     5     6    1
     5     6     7    1
     6     7     8    1
     7     8     9   ar
     8     9    10   ar
     9    10    11   ar
    10    11    12   ar
    11    12    15    1
    12    15    16   ar
    13    16    17   ar
    14    17    18   ar
    15    18    21    1
    16    21    22    1
    17    18    19   ar
    18    19    20   ar
    19    12    13   ar
    20    13    14    1
    21     2    24    1
    22    24    25   ar
    23    25    26   ar
    24    26    27   ar
    25    27    30    1
    26    30    31    1
    27    31    32    1
    28    32    33    1
    29    33    34    1
    30    34    35    1
    31    35    36    1
    32    35    37    1
    33    35    38    1
    34    27    28   ar
    35    28    29   ar
    36    14     5    1
    37    29    24   ar
    38    13     8   ar
    39    20    15   ar
    40     3     4    1
    41    22    23    1
@<TRIPOS>MOLECULE
*****
 38 41 0 0 0
SMALL
GASTEIGER

@<TRIPOS>ATOM
      1 O         139.8663  138.9409  162.2038 O.2     1  UNL1       -0.2701
      2 C         141.2858  138.7690  161.7504 C.2     1  UNL1        0.2474
      3 N         142.4135  138.9995  162.7122 N.am    1  UNL1       -0.2986
      4 H         143.3451  138.8867  162.4145 H       1  UNL1        0.1498
      5 C         142.1218  139.4018  164.1275 C.3     1  UNL1        0.1200
      6 C         142.3912  138.4441  165.2501 C.3     1  UNL1        0.2250
      7 O         142.0995  138.8465  166.6654 O.3     1  UNL1       -0.4740
      8 C         141.5384  140.2064  166.9580 C.ar    1  UNL1        0.1346
      9 C         141.2467  140.6088  168.3734 C.ar    1  UNL1        0.0366
     10 C         140.6855  141.9687  168.6660 C.ar    1  UNL1        0.0031
     11 C         140.4161  142.9264  167.5433 C.ar    1  UNL1       -0.0001
     12 C         140.7078  142.5240  166.1280 C.ar    1  UNL1        0.0005
     13 C         141.2690  141.1641  165.8354 C.ar    1  UNL1        0.0136
     14 C         141.5607  140.7617  164.4202 C.3     1  UNL1        0.0528
     15 C         140.4384  143.4817  165.0054 C.ar    1  UNL1        0.0190
     16 C         141.5692  144.2479  164.3856 C.ar    1  UNL1        0.0028
     17 C         141.2997  145.2056  163.2629 C.ar    1  UNL1        0.0172
     18 CA        139.8995  145.3970  162.7601 C.ar    1  UNL1        0.0885
     19 N         138.7688  144.6307  163.3800 N.ar    1  UNL1       -0.2457
     20 C         139.0382  143.6731  164.5026 C.ar    1  UNL1        0.0985
     21 C         139.6301  146.3547  161.6375 C.3     1  UNL1        0.1829
     22 O         139.6973  145.8815  160.2156 O.3     1  UNL1       -0.3760
     23 H         140.6097  145.6320  160.0007 H       1  UNL1        0.2110
     24 C         141.5775  138.3667  160.3350 C.ar    1  UNL1        0.0727
     25 C         140.5947  138.6842  159.2473 C.ar    1  UNL1        0.0109
     26 C         140.8864  138.2819  157.8321 C.ar    1  UNL1        0.0579
     27 C         142.1610  137.5621  157.5045 C.ar    1  UNL1        0.2249
     28 N         143.1438  137.2446  158.5922 N.ar    1  UNL1       -0.2100
     29 C         142.8521  137.6469  160.0075 C.ar    1  UNL1        0.1065
     30 O         142.4527  137.1598  156.0892 O.3     1  UNL1       -0.4575
     31 C         143.5512  136.1805  155.7991 C.3     1  UNL1        0.2390
     32 C         143.2244  134.8384  155.2143 C.3     1  UNL1        0.1897
     33 O         142.3341  133.8909  155.9625 O.3     1  UNL1       -0.3417
     34 C         142.9266  132.7182  156.6860 C.3     1  UNL1        0.2459
     35 C         144.1989  132.8815  157.4637 C.3     1  UNL1        0.4248
     36 F         145.4712  133.0447  158.2413 F       1  UNL1       -0.1674
     37 F         143.5158  133.8558  158.3769 F       1  UNL1       -0.1674
     38 F         144.8821  131.9071  156.5506 F       1  UNL1       -0.1674
@<TRIPOS>BOND
     1     1     2    2
     2     2     3   am
     3     5     3    1
     4     5     6    1
     5     6     7    1
     6     7     8    1
     7     8     9   ar
     8     9    10   ar
     9    10    11   ar
    10    11    12   ar
    11    12    15    1
    12    15    16   ar
    13    16    17   ar
    14    17    18   ar
    15    18    21    1
    16    21    22    1
    17    18    19   ar
    18    19    20   ar
    19    12    13   ar
    20    13    14    1
    21     2    24    1
    22    24    25   ar
    23    25    26   ar
    24    26    27   ar
    25    27    30    1
    26    30    31    1
    27    31    32    1
    28    32    33    1
    29    33    34    1
    30    34    35    1
    31    35    36    1
    32    35    37    1
    33    35    38    1
    34    27    28   ar
    35    28    29   ar
    36    14     5    1
    37    29    24   ar
    38    13     8   ar
    39    20    15   ar
    40     3     4    1
    41    22    23    1
@<TRIPOS>MOLECULE
*****
 38 41 0 0 0
SMALL
GASTEIGER

@<TRIPOS>ATOM
      1 O         140.9960  138.4840  162.6749 O.2     1  UNL1       -0.2701
      2 C         142.3355  138.8830  162.1305 C.2     1  UNL1        0.2474
      3 N         143.4411  139.2698  163.0676 N.am    1  UNL1       -0.2986
      4 H         144.3202  139.5317  162.7102 H       1  UNL1        0.1498
      5 C         143.2071  139.2574  164.5492 C.3     1  UNL1        0.1200
      6 C         144.0704  138.4118  165.4378 C.3     1  UNL1        0.2250
      7 O         143.8364  138.3995  166.9193 O.3     1  UNL1       -0.4740
      8 C         142.7392  139.2328  167.5123 C.ar    1  UNL1        0.1346
      9 C         142.5052  139.2205  168.9940 C.ar    1  UNL1        0.0366
     10 C         141.4079  140.0538  169.5869 C.ar    1  UNL1        0.0031
     11 C         140.5446  140.8994  168.6983 C.ar    1  UNL1       -0.0001
     12 C         140.7786  140.9117  167.2167 C.ar    1  UNL1        0.0005
     13 C         141.8759  140.0784  166.6237 C.ar    1  UNL1        0.0136
     14 C         142.1098  140.0907  165.1422 C.3     1  UNL1        0.0528
     15 C         139.9153  141.7573  166.3281 C.ar    1  UNL1        0.0190
     16 C         138.8303  141.1211  165.5107 C.ar    1  UNL1        0.0028
     17 C         137.9670  141.9668  164.6221 C.ar    1  UNL1        0.0172
     18 CA        138.1886  143.4486  164.5509 C.ar    1  UNL1        0.0885
     19 N         139.2736  144.0848  165.3683 N.ar    1  UNL1       -0.2457
     20 C         140.1369  143.2392  166.2569 C.ar    1  UNL1        0.0985
     21 C         137.3253  144.2943  163.6623 C.3     1  UNL1        0.1829
     22 O         137.7575  144.5884  162.2564 O.3     1  UNL1       -0.3760
     23 H         138.5587  145.1349  162.2721 H       1  UNL1        0.2110
     24 C         142.5695  138.8954  160.6488 C.ar    1  UNL1        0.0727
     25 C         141.5211  138.3595  159.7195 C.ar    1  UNL1        0.0109
     26 C         141.7551  138.3719  158.2380 C.ar    1  UNL1        0.0579
     27 C         143.0374  138.9201  157.6857 C.ar    1  UNL1        0.2249
     28 N         144.0858  139.4560  158.6150 N.ar    1  UNL1       -0.2100
     29 C         143.8518  139.4437  160.0966 C.ar    1  UNL1        0.1065
     30 O         143.2714  138.9325  156.2041 O.3     1  UNL1       -0.4575
     31 C         143.3207  137.6416  155.4418 C.3     1  UNL1        0.2390
     32 C         143.7905  136.3883  156.1189 C.3     1  UNL1        0.1897
     33 O         143.1614  135.0701  155.7770 O.3     1  UNL1       -0.3417
     34 C         142.9577  134.0369  156.8451 C.3     1  UNL1        0.2459
     35 C         144.1308  133.5258  157.6278 C.3     1  UNL1        0.4248
     36 F         145.3039  133.0148  158.4105 F       1  UNL1       -0.1674
     37 F         144.6329  132.8107  156.4086 F       1  UNL1       -0.1674
     38 F         143.6288  134.2408  158.8471 F       1  UNL1       -0.1674
@<TRIPOS>BOND
     1     1     2    2
     2     2     3   am
     3     5     3    1
     4     5     6    1
     5     6     7    1
     6     7     8    1
     7     8     9   ar
     8     9    10   ar
     9    10    11   ar
    10    11    12   ar
    11    12    15    1
    12    15    16   ar
    13    16    17   ar
    14    17    18   ar
    15    18    21    1
    16    21    22    1
    17    18    19   ar
    18    19    20   ar
    19    12    13   ar
    20    13    14    1
    21     2    24    1
    22    24    25   ar
    23    25    26   ar
    24    26    27   ar
    25    27    30    1
    26    30    31    1
    27    31    32    1
    28    32    33    1
    29    33    34    1
    30    34    35    1
    31    35    36    1
    32    35    37    1
    33    35    38    1
    34    27    28   ar
    35    28    29   ar
    36    14     5    1
    37    29    24   ar
    38    13     8   ar
    39    20    15   ar
    40     3     4    1
    41    22    23    1
@<TRIPOS>MOLECULE
*****
 38 41 0 0 0
SMALL
GASTEIGER

@<TRIPOS>ATOM
      1 O         141.2494  141.7345  158.9772 O.2     1  UNL1       -0.2701
      2 C         139.8743  142.2434  159.2934 C.2     1  UNL1        0.2474
      3 N         139.6357  143.0296  160.5484 N.am    1  UNL1       -0.2986
      4 H         138.7331  143.3636  160.7559 H       1  UNL1        0.1498
      5 C         140.7723  143.3069  161.4872 C.3     1  UNL1        0.1200
      6 C         141.7912  144.3525  161.1432 C.3     1  UNL1        0.2250
      7 O         142.9277  144.6297  162.0820 O.3     1  UNL1       -0.4740
      8 C         143.0453  143.8613  163.3649 C.ar    1  UNL1        0.1346
      9 C         144.1819  144.1385  164.3037 C.ar    1  UNL1        0.0366
     10 C         144.2995  143.3701  165.5866 C.ar    1  UNL1        0.0031
     11 C         143.2805  142.3244  165.9306 C.ar    1  UNL1       -0.0001
     12 C         142.1440  142.0472  164.9917 C.ar    1  UNL1        0.0005
     13 C         142.0264  142.8156  163.7089 C.ar    1  UNL1        0.0136
     14 C         140.8899  142.5384  162.7701 C.3     1  UNL1        0.0528
     15 C         141.1251  141.0016  165.3358 C.ar    1  UNL1        0.0190
     16 C         141.1961  139.6463  164.6969 C.ar    1  UNL1        0.0028
     17 C         140.1771  138.6006  165.0410 C.ar    1  UNL1        0.0172
     18 CA        139.0872  138.9103  166.0239 C.ar    1  UNL1        0.0885
     19 N         139.0161  140.2656  166.6627 N.ar    1  UNL1       -0.2457
     20 C         140.0350  141.3112  166.3187 C.ar    1  UNL1        0.0985
     21 C         138.0682  137.8646  166.3679 C.3     1  UNL1        0.1829
     22 O         137.0586  138.1272  167.4458 O.3     1  UNL1       -0.3760
     23 H         137.5105  138.2011  168.3010 H       1  UNL1        0.2110
     24 C         138.7377  141.9662  158.3546 C.ar    1  UNL1        0.0727
     25 C         138.3582  142.9800  157.3162 C.ar    1  UNL1        0.0109
     26 C         137.2217  142.7027  156.3775 C.ar    1  UNL1        0.0579
     27 C         136.4646  141.4116  156.4770 C.ar    1  UNL1        0.2249
     28 N         136.8440  140.3978  157.5154 N.ar    1  UNL1       -0.2100
     29 C         137.9806  140.6751  158.4541 C.ar    1  UNL1        0.1065
     30 O         135.3280  141.1343  155.5382 O.3     1  UNL1       -0.4575
     31 C         134.2952  140.1064  155.8938 C.3     1  UNL1        0.2390
     32 C         132.8647  140.5153  156.0847 C.3     1  UNL1        0.1897
     33 O         132.1691  140.2276  157.3822 O.3     1  UNL1       -0.3417
     34 C         130.7179  139.8481  157.3871 C.3     1  UNL1        0.2459
     35 C         130.2586  138.6502  158.1645 C.3     1  UNL1        0.4248
     36 F         129.7994  137.4524  158.9418 F       1  UNL1       -0.1674
     37 F         128.8419  138.9302  157.7590 F       1  UNL1       -0.1674
     38 F         131.6753  138.3702  158.5699 F       1  UNL1       -0.1674
@<TRIPOS>BOND
     1     1     2    2
     2     2     3   am
     3     5     3    1
     4     5     6    1
     5     6     7    1
     6     7     8    1
     7     8     9   ar
     8     9    10   ar
     9    10    11   ar
    10    11    12   ar
    11    12    15    1
    12    15    16   ar
    13    16    17   ar
    14    17    18   ar
    15    18    21    1
    16    21    22    1
    17    18    19   ar
    18    19    20   ar
    19    12    13   ar
    20    13    14    1
    21     2    24    1
    22    24    25   ar
    23    25    26   ar
    24    26    27   ar
    25    27    30    1
    26    30    31    1
    27    31    32    1
    28    32    33    1
    29    33    34    1
    30    34    35    1
    31    35    36    1
    32    35    37    1
    33    35    38    1
    34    27    28   ar
    35    28    29   ar
    36    14     5    1
    37    29    24   ar
    38    13     8   ar
    39    20    15   ar
    40     3     4    1
    41    22    23    1
@<TRIPOS>MOLECULE
*****
 38 41 0 0 0
SMALL
GASTEIGER

@<TRIPOS>ATOM
      1 O         144.0188  139.1156  159.0958 O.2     1  UNL1       -0.2701
      2 C         142.8189  138.6409  159.8605 C.2     1  UNL1        0.2474
      3 N         141.5838  138.2103  159.1263 N.am    1  UNL1       -0.2986
      4 H         140.7962  137.8987  159.6283 H       1  UNL1        0.1498
      5 C         141.5486  138.2543  157.6274 C.3     1  UNL1        0.1200
      6 C         141.2266  139.5384  156.9221 C.3     1  UNL1        0.2250
      7 O         141.1915  139.5824  155.4232 O.3     1  UNL1       -0.4740
      8 C         141.4783  138.3423  154.6295 C.ar    1  UNL1        0.1346
      9 C         141.4431  138.3864  153.1305 C.ar    1  UNL1        0.0366
     10 C         141.7299  137.1463  152.3369 C.ar    1  UNL1        0.0031
     11 C         142.0519  135.8622  153.0422 C.ar    1  UNL1       -0.0001
     12 C         142.0870  135.8182  154.5411 C.ar    1  UNL1        0.0005
     13 C         141.8002  137.0583  155.3348 C.ar    1  UNL1        0.0136
     14 C         141.8354  137.0142  156.8337 C.3     1  UNL1        0.0528
     15 C         142.4090  134.5341  155.2463 C.ar    1  UNL1        0.0190
     16 C         143.7592  134.3390  155.8699 C.ar    1  UNL1        0.0028
     17 C         144.0811  133.0548  156.5751 C.ar    1  UNL1        0.0172
     18 CA        143.0529  131.9658  156.6568 C.ar    1  UNL1        0.0885
     19 N         141.7027  132.1609  156.0332 N.ar    1  UNL1       -0.2457
     20 C         141.3807  133.4450  155.3280 C.ar    1  UNL1        0.0985
     21 C         143.3748  130.6816  157.3621 C.3     1  UNL1        0.1829
     22 O         144.5103  130.6277  158.3408 O.3     1  UNL1       -0.3760
     23 H         145.3477  130.7701  157.8725 H       1  UNL1        0.2110
     24 C         142.8540  138.5968  161.3595 C.ar    1  UNL1        0.0727
     25 C         141.7594  137.9038  162.1154 C.ar    1  UNL1        0.0109
     26 C         141.7946  137.8597  163.6143 C.ar    1  UNL1        0.0579
     27 C         142.9245  138.5088  164.3574 C.ar    1  UNL1        0.2249
     28 N         144.0191  139.2019  163.6015 N.ar    1  UNL1       -0.2100
     29 C         143.9839  139.2459  162.1026 C.ar    1  UNL1        0.1065
     30 O         142.9596  138.4647  165.8563 O.3     1  UNL1       -0.4575
     31 C         142.2527  139.5198  166.6545 C.3     1  UNL1        0.2390
     32 C         142.3832  139.5432  168.1486 C.3     1  UNL1        0.1897
     33 O         141.5967  140.5339  168.9547 O.3     1  UNL1       -0.3417
     34 C         142.0177  141.9731  168.9924 C.3     1  UNL1        0.2459
     35 C         143.3996  142.3386  169.4472 C.3     1  UNL1        0.4248
     36 F         144.7814  142.7042  169.9021 F       1  UNL1       -0.1674
     37 F         143.7926  142.6199  168.0272 F       1  UNL1       -0.1674
     38 F         143.0066  142.0574  170.8672 F       1  UNL1       -0.1674
@<TRIPOS>BOND
     1     1     2    2
     2     2     3   am
     3     5     3    1
     4     5     6    1
     5     6     7    1
     6     7     8    1
     7     8     9   ar
     8     9    10   ar
     9    10    11   ar
    10    11    12   ar
    11    12    15    1
    12    15    16   ar
    13    16    17   ar
    14    17    18   ar
    15    18    21    1
    16    21    22    1
    17    18    19   ar
    18    19    20   ar
    19    12    13   ar
    20    13    14    1
    21     2    24    1
    22    24    25   ar
    23    25    26   ar
    24    26    27   ar
    25    27    30    1
    26    30    31    1
    27    31    32    1
    28    32    33    1
    29    33    34    1
    30    34    35    1
    31    35    36    1
    32    35    37    1
    33    35    38    1
    34    27    28   ar
    35    28    29   ar
    36    14     5    1
    37    29    24   ar
    38    13     8   ar
    39    20    15   ar
    40     3     4    1
    41    22    23    1
@<TRIPOS>MOLECULE
*****
 38 41 0 0 0
SMALL
GASTEIGER

@<TRIPOS>ATOM
      1 O         143.9811  139.2440  159.2012 O.2     1  UNL1       -0.2701
      2 C         142.5717  139.2986  158.6907 C.2     1  UNL1        0.2474
      3 N         141.6617  140.4116  159.1185 N.am    1  UNL1       -0.2986
      4 H         140.7366  140.4474  158.7834 H       1  UNL1        0.1498
      5 C         142.1610  141.4701  160.0568 C.3     1  UNL1        0.1200
      6 C         143.0525  142.5637  159.5477 C.3     1  UNL1        0.2250
      7 O         143.5518  143.6221  160.4860 O.3     1  UNL1       -0.4740
      8 C         143.1596  143.5869  161.9333 C.ar    1  UNL1        0.1346
      9 C         143.6589  144.6454  162.8717 C.ar    1  UNL1        0.0366
     10 C         143.2667  144.6102  164.3190 C.ar    1  UNL1        0.0031
     11 C         142.3751  143.5165  164.8281 C.ar    1  UNL1       -0.0001
     12 C         141.8759  142.4581  163.8898 C.ar    1  UNL1        0.0005
     13 C         142.2681  142.4933  162.4424 C.ar    1  UNL1        0.0136
     14 C         141.7688  141.4349  161.5041 C.3     1  UNL1        0.0528
     15 C         140.9843  141.3645  164.3989 C.ar    1  UNL1        0.0190
     16 C         139.4970  141.5577  164.4189 C.ar    1  UNL1        0.0028
     17 C         138.6054  140.4640  164.9280 C.ar    1  UNL1        0.0172
     18 CA        139.2013  139.1773  165.4171 C.ar    1  UNL1        0.0885
     19 N         140.6887  138.9842  165.3972 N.ar    1  UNL1       -0.2457
     20 C         141.5802  140.0777  164.8881 C.ar    1  UNL1        0.0985
     21 C         138.3098  138.0836  165.9263 C.3     1  UNL1        0.1829
     22 O         137.2738  138.3846  166.9685 O.3     1  UNL1       -0.3760
     23 H         137.7119  138.6357  167.7967 H       1  UNL1        0.2110
     24 C         142.0724  138.2401  157.7524 C.ar    1  UNL1        0.0727
     25 C         143.0237  137.2241  157.1932 C.ar    1  UNL1        0.0109
     26 C         142.5243  136.1657  156.2550 C.ar    1  UNL1        0.0579
     27 C         141.0737  136.1233  155.8759 C.ar    1  UNL1        0.2249
     28 N         140.1223  137.1393  156.4350 N.ar    1  UNL1       -0.2100
     29 C         140.6217  138.1977  157.3733 C.ar    1  UNL1        0.1065
     30 O         140.5743  135.0648  154.9376 O.3     1  UNL1       -0.4575
     31 C         141.5494  134.2253  154.1667 C.3     1  UNL1        0.2390
     32 C         141.9386  132.8694  154.6765 C.3     1  UNL1        0.1897
     33 O         142.6446  132.7374  155.9934 O.3     1  UNL1       -0.3417
     34 C         144.1404  132.8302  156.0552 C.3     1  UNL1        0.2459
     35 C         144.8888  132.1526  157.1646 C.3     1  UNL1        0.4248
     36 F         145.6371  131.4750  158.2740 F       1  UNL1       -0.1674
     37 F         145.2854  131.0525  156.2252 F       1  UNL1       -0.1674
     38 F         144.4921  133.2526  158.1040 F       1  UNL1       -0.1674
@<TRIPOS>BOND
     1     1     2    2
     2     2     3   am
     3     5     3    1
     4     5     6    1
     5     6     7    1
     6     7     8    1
     7     8     9   ar
     8     9    10   ar
     9    10    11   ar
    10    11    12   ar
    11    12    15    1
    12    15    16   ar
    13    16    17   ar
    14    17    18   ar
    15    18    21    1
    16    21    22    1
    17    18    19   ar
    18    19    20   ar
    19    12    13   ar
    20    13    14    1
    21     2    24    1
    22    24    25   ar
    23    25    26   ar
    24    26    27   ar
    25    27    30    1
    26    30    31    1
    27    31    32    1
    28    32    33    1
    29    33    34    1
    30    34    35    1
    31    35    36    1
    32    35    37    1
    33    35    38    1
    34    27    28   ar
    35    28    29   ar
    36    14     5    1
    37    29    24   ar
    38    13     8   ar
    39    20    15   ar
    40     3     4    1
    41    22    23    1
@<TRIPOS>MOLECULE
*****
 38 41 0 0 0
SMALL
GASTEIGER

@<TRIPOS>ATOM
      1 O         143.5519  142.0932  163.2099 O.2     1  UNL1       -0.2701
      2 C         143.6988  140.8365  162.4042 C.2     1  UNL1        0.2474
      3 N         143.5738  139.4990  163.0715 N.am    1  UNL1       -0.2986
      4 H         143.6702  138.6742  162.5427 H       1  UNL1        0.1498
      5 C         143.3019  139.4181  164.5444 C.3     1  UNL1        0.1200
      6 C         144.1604  138.5535  165.4192 C.3     1  UNL1        0.2250
      7 O         143.8885  138.4726  166.8921 O.3     1  UNL1       -0.4740
      8 C         142.7580  139.2563  167.4902 C.ar    1  UNL1        0.1346
      9 C         142.4861  139.1754  168.9632 C.ar    1  UNL1        0.0366
     10 C         141.3556  139.9592  169.5613 C.ar    1  UNL1        0.0031
     11 C         140.4970  140.8238  168.6864 C.ar    1  UNL1       -0.0001
     12 C         140.7689  140.9047  167.2135 C.ar    1  UNL1        0.0005
     13 C         141.8994  140.1209  166.6154 C.ar    1  UNL1        0.0136
     14 C         142.1714  140.2018  165.1425 C.3     1  UNL1        0.0528
     15 C         139.9104  141.7693  166.3388 C.ar    1  UNL1        0.0190
     16 C         138.8603  141.1462  165.4675 C.ar    1  UNL1        0.0028
     17 C         138.0018  142.0109  164.5926 C.ar    1  UNL1        0.0172
     18 CA        138.1933  143.4986  164.5892 C.ar    1  UNL1        0.0885
     19 N         139.2433  144.1217  165.4605 N.ar    1  UNL1       -0.2457
     20 C         140.1019  143.2571  166.3353 C.ar    1  UNL1        0.0985
     21 C         137.3347  144.3633  163.7143 C.3     1  UNL1        0.1829
     22 O         137.4984  144.3190  162.2240 O.3     1  UNL1       -0.3760
     23 H         138.3729  144.6634  161.9844 H       1  UNL1        0.2110
     24 C         143.9707  140.9174  160.9312 C.ar    1  UNL1        0.0727
     25 C         144.3406  142.2306  160.3079 C.ar    1  UNL1        0.0109
     26 C         144.6125  142.3115  158.8350 C.ar    1  UNL1        0.0579
     27 C         144.5145  141.0791  157.9854 C.ar    1  UNL1        0.2249
     28 N         144.1446  139.7659  158.6088 N.ar    1  UNL1       -0.2100
     29 C         143.8727  139.6851  160.0817 C.ar    1  UNL1        0.1065
     30 O         144.7864  141.1600  156.5125 O.3     1  UNL1       -0.4575
     31 C         143.6982  140.8419  155.5303 C.3     1  UNL1        0.2390
     32 C         143.5620  139.4506  154.9866 C.3     1  UNL1        0.1897
     33 O         142.9475  138.3727  155.8296 O.3     1  UNL1       -0.3417
     34 C         142.7727  136.9917  155.2710 C.3     1  UNL1        0.2459
     35 C         143.4512  135.8258  155.9270 C.3     1  UNL1        0.4248
     36 F         144.1297  134.6600  156.5830 F       1  UNL1       -0.1674
     37 F         142.1410  135.3951  156.5168 F       1  UNL1       -0.1674
     38 F         144.7614  136.2565  155.3373 F       1  UNL1       -0.1674
@<TRIPOS>BOND
     1     1     2    2
     2     2     3   am
     3     5     3    1
     4     5     6    1
     5     6     7    1
     6     7     8    1
     7     8     9   ar
     8     9    10   ar
     9    10    11   ar
    10    11    12   ar
    11    12    15    1
    12    15    16   ar
    13    16    17   ar
    14    17    18   ar
    15    18    21    1
    16    21    22    1
    17    18    19   ar
    18    19    20   ar
    19    12    13   ar
    20    13    14    1
    21     2    24    1
    22    24    25   ar
    23    25    26   ar
    24    26    27   ar
    25    27    30    1
    26    30    31    1
    27    31    32    1
    28    32    33    1
    29    33    34    1
    30    34    35    1
    31    35    36    1
    32    35    37    1
    33    35    38    1
    34    27    28   ar
    35    28    29   ar
    36    14     5    1
    37    29    24   ar
    38    13     8   ar
    39    20    15   ar
    40     3     4    1
    41    22    23    1
@<TRIPOS>MOLECULE
*****
 38 41 0 0 0
SMALL
GASTEIGER

@<TRIPOS>ATOM
      1 O         141.5066  140.2229  162.6607 O.2     1  UNL1       -0.2701
      2 C         140.7316  139.0792  162.0764 C.2     1  UNL1        0.2474
      3 N         139.7548  138.3228  162.9270 N.am    1  UNL1       -0.2986
      4 H         139.2462  137.5722  162.5435 H       1  UNL1        0.1498
      5 C         139.5529  138.7101  164.3621 C.3     1  UNL1        0.1200
      6 C         138.7130  137.8507  165.2598 C.3     1  UNL1        0.2250
      7 O         138.5111  138.2380  166.6948 O.3     1  UNL1       -0.4740
      8 C         139.1492  139.4847  167.2321 C.ar    1  UNL1        0.1346
      9 C         138.9474  139.8720  168.6671 C.ar    1  UNL1        0.0366
     10 C         139.5855  141.1186  169.2044 C.ar    1  UNL1        0.0031
     11 C         140.4255  141.9780  168.3066 C.ar    1  UNL1       -0.0001
     12 C         140.6273  141.5907  166.8717 C.ar    1  UNL1        0.0005
     13 C         139.9892  140.3441  166.3344 C.ar    1  UNL1        0.0136
     14 C         140.1910  139.9568  164.8994 C.3     1  UNL1        0.0528
     15 C         141.4673  142.4501  165.9740 C.ar    1  UNL1        0.0190
     16 C         142.9632  142.3555  166.0300 C.ar    1  UNL1        0.0028
     17 C         143.8032  143.2150  165.1322 C.ar    1  UNL1        0.0172
     18 CA        143.1472  144.1689  164.1785 C.ar    1  UNL1        0.0885
     19 N         141.6512  144.2634  164.1224 N.ar    1  UNL1       -0.2457
     20 C         140.8112  143.4040  165.0201 C.ar    1  UNL1        0.0985
     21 C         143.9871  145.0283  163.2807 C.3     1  UNL1        0.1829
     22 O         144.7652  144.4057  162.1596 O.3     1  UNL1       -0.3760
     23 H         145.4551  143.8302  162.5254 H       1  UNL1        0.2110
     24 C         140.9335  138.6920  160.6413 C.ar    1  UNL1        0.0727
     25 C         139.7828  138.7469  159.6807 C.ar    1  UNL1        0.0109
     26 C         139.9848  138.3597  158.2457 C.ar    1  UNL1        0.0579
     27 C         141.3373  137.9175  157.7714 C.ar    1  UNL1        0.2249
     28 N         142.4880  137.8625  158.7320 N.ar    1  UNL1       -0.2100
     29 C         142.2861  138.2498  160.1670 C.ar    1  UNL1        0.1065
     30 O         141.5392  137.5302  156.3363 O.3     1  UNL1       -0.4575
     31 C         140.5098  136.6967  155.6324 C.3     1  UNL1        0.2390
     32 C         140.8720  135.3358  155.1160 C.3     1  UNL1        0.1897
     33 O         142.2500  135.0786  154.5820 O.3     1  UNL1       -0.3417
     34 C         143.2019  134.2103  155.3500 C.3     1  UNL1        0.2459
     35 C         143.3466  134.3847  156.8328 C.3     1  UNL1        0.4248
     36 F         143.4912  134.5592  158.3155 F       1  UNL1       -0.1674
     37 F         142.6100  133.0973  157.0561 F       1  UNL1       -0.1674
     38 F         144.0832  135.6721  156.6095 F       1  UNL1       -0.1674
@<TRIPOS>BOND
     1     1     2    2
     2     2     3   am
     3     5     3    1
     4     5     6    1
     5     6     7    1
     6     7     8    1
     7     8     9   ar
     8     9    10   ar
     9    10    11   ar
    10    11    12   ar
    11    12    15    1
    12    15    16   ar
    13    16    17   ar
    14    17    18   ar
    15    18    21    1
    16    21    22    1
    17    18    19   ar
    18    19    20   ar
    19    12    13   ar
    20    13    14    1
    21     2    24    1
    22    24    25   ar
    23    25    26   ar
    24    26    27   ar
    25    27    30    1
    26    30    31    1
    27    31    32    1
    28    32    33    1
    29    33    34    1
    30    34    35    1
    31    35    36    1
    32    35    37    1
    33    35    38    1
    34    27    28   ar
    35    28    29   ar
    36    14     5    1
    37    29    24   ar
    38    13     8   ar
    39    20    15   ar
    40     3     4    1
    41    22    23    1
@<TRIPOS>MOLECULE
*****
 38 41 0 0 0
SMALL
GASTEIGER

@<TRIPOS>ATOM
      1 O         143.7957  138.9668  157.6625 O.2     1  UNL1       -0.2701
      2 C         142.8213  138.5814  158.7358 C.2     1  UNL1        0.2474
      3 N         141.5132  137.9461  158.3682 N.am    1  UNL1       -0.2986
      4 H         140.8736  137.6931  159.0726 H       1  UNL1        0.1498
      5 C         141.1794  137.6962  156.9272 C.3     1  UNL1        0.1200
      6 C         140.4905  138.7577  156.1219 C.3     1  UNL1        0.2250
      7 O         140.1568  138.5078  154.6811 O.3     1  UNL1       -0.4740
      8 C         140.5120  137.1963  154.0455 C.ar    1  UNL1        0.1346
      9 C         140.1782  136.9464  152.6046 C.ar    1  UNL1        0.0366
     10 C         140.5333  135.6349  151.9691 C.ar    1  UNL1        0.0031
     11 C         141.2223  134.5733  152.7745 C.ar    1  UNL1       -0.0001
     12 C         141.5560  134.8233  154.2153 C.ar    1  UNL1        0.0005
     13 C         141.2008  136.1348  154.8508 C.ar    1  UNL1        0.0136
     14 C         141.5346  136.3847  156.2917 C.3     1  UNL1        0.0528
     15 C         142.2449  133.7618  155.0206 C.ar    1  UNL1        0.0190
     16 C         143.6679  133.9543  155.4540 C.ar    1  UNL1        0.0028
     17 C         144.3568  132.8927  156.2594 C.ar    1  UNL1        0.0172
     18 CA        143.6226  131.6386  156.6313 C.ar    1  UNL1        0.0885
     19 N         142.1996  131.4461  156.1978 N.ar    1  UNL1       -0.2457
     20 C         141.5107  132.5077  155.3925 C.ar    1  UNL1        0.0985
     21 C         144.3115  130.5770  157.4366 C.3     1  UNL1        0.1829
     22 O         143.5875  129.9028  158.5641 O.3     1  UNL1       -0.3760
     23 H         143.4088  130.5484  159.2656 H       1  UNL1        0.2110
     24 C         143.1551  138.8313  160.1767 C.ar    1  UNL1        0.0727
     25 C         143.9249  140.0582  160.5663 C.ar    1  UNL1        0.0109
     26 C         144.2586  140.3081  162.0072 C.ar    1  UNL1        0.0579
     27 C         143.8225  139.3310  163.0584 C.ar    1  UNL1        0.2249
     28 N         143.0527  138.1040  162.6688 N.ar    1  UNL1       -0.2100
     29 C         142.7190  137.8542  161.2279 C.ar    1  UNL1        0.1065
     30 O         144.1563  139.5809  164.4994 O.3     1  UNL1       -0.4575
     31 C         143.2595  140.4421  165.3385 C.3     1  UNL1        0.2390
     32 C         141.7984  140.5424  165.0146 C.3     1  UNL1        0.1897
     33 O         140.8214  139.6033  165.6577 O.3     1  UNL1       -0.3417
     34 C         139.5010  140.1165  166.1507 C.3     1  UNL1        0.2459
     35 C         138.4125  139.1530  166.5207 C.3     1  UNL1        0.4248
     36 F         137.3241  138.1895  166.8906 F       1  UNL1       -0.1674
     37 F         138.1817  138.8561  165.0686 F       1  UNL1       -0.1674
     38 F         138.6433  139.4498  167.9727 F       1  UNL1       -0.1674
@<TRIPOS>BOND
     1     1     2    2
     2     2     3   am
     3     5     3    1
     4     5     6    1
     5     6     7    1
     6     7     8    1
     7     8     9   ar
     8     9    10   ar
     9    10    11   ar
    10    11    12   ar
    11    12    15    1
    12    15    16   ar
    13    16    17   ar
    14    17    18   ar
    15    18    21    1
    16    21    22    1
    17    18    19   ar
    18    19    20   ar
    19    12    13   ar
    20    13    14    1
    21     2    24    1
    22    24    25   ar
    23    25    26   ar
    24    26    27   ar
    25    27    30    1
    26    30    31    1
    27    31    32    1
    28    32    33    1
    29    33    34    1
    30    34    35    1
    31    35    36    1
    32    35    37    1
    33    35    38    1
    34    27    28   ar
    35    28    29   ar
    36    14     5    1
    37    29    24   ar
    38    13     8   ar
    39    20    15   ar
    40     3     4    1
    41    22    23    1
