@<TRIPOS>MOLECULE
*****
 35 36 0 0 0
SMALL
GASTEIGER

@<TRIPOS>ATOM
      1 N         138.4899  139.8615  164.5366 N.am    1  UNL1       -0.3046
      2 C         139.1083  138.7497  163.7420 C.2     1  UNL1        0.2425
      3 O         140.3605  138.0845  164.2315 O.2     1  UNL1       -0.2733
      4 H         137.6680  140.2980  164.2153 H       1  UNL1        0.1494
      5 C         140.0463  141.4909  165.8299 C.3     1  UNL1        0.0193
      6 C         140.6800  141.9376  167.1139 C.3     1  UNL1        0.0176
      7 C         140.3912  141.2017  168.3887 C.3     1  UNL1        0.0576
      8 C         139.4686  140.0190  168.3794 C.3     1  UNL1        0.0176
      9 C         138.8349  139.5723  167.0954 C.3     1  UNL1        0.0209
     10 C         139.1237  140.3083  165.8206 C.3     1  UNL1        0.0716
     11 N         141.0250  141.6485  169.6728 N.3     1  UNL1       -0.2741
     12 C         140.2320  142.4514  170.6609 C.3     1  UNL1        0.0896
     13 C         142.4517  141.2923  169.9686 C.3     1  UNL1        0.0576
     14 C         142.8049  139.8958  170.3872 C.3     1  UNL1        0.0173
     15 C         143.5254  142.3326  169.8458 C.3     1  UNL1        0.0173
     16 C         140.3351  142.2269  164.5552 C.3     1  UNL1        0.0017
     17 C         140.1354  143.7118  164.4847 C.3     1  UNL1        0.0001
     18 C         137.7648  144.0964  163.4934 C.3     1  UNL1        0.0000
     19 C         138.7561  144.2895  164.6025 C.3     1  UNL1        0.0000
     20 C         138.3682  145.0604  165.8294 C.3     1  UNL1        0.0000
     21 C         138.4745  138.3029  162.4580 C.3     1  UNL1        0.1759
     22 N         138.7277  139.0656  161.1915 N.am    1  UNL1       -0.2931
     23 C         138.0890  140.4067  160.9832 C.2     1  UNL1        0.2462
     24 O         137.1971  140.9851  162.0414 O.2     1  UNL1       -0.2701
     25 H         139.3131  138.6859  160.4969 H       1  UNL1        0.1502
     26 C         138.3422  141.1695  159.7166 C.ar    1  UNL1        0.0533
     27 C         137.8694  140.6205  158.4032 C.ar    1  UNL1        0.0045
     28 C         138.1226  141.3833  157.1367 C.ar    1  UNL1        0.0001
     29 C         138.8487  142.6950  157.1837 C.ar    1  UNL1        0.0039
     30 C         139.3215  143.2440  158.4970 C.ar    1  UNL1        0.0716
     31 C         139.0683  142.4812  159.7635 C.ar    1  UNL1        0.0084
     32 C         140.0476  144.5557  158.5440 C.3     1  UNL1        0.4186
     33 F         140.7737  145.8674  158.5909 F       1  UNL1       -0.1659
     34 F         139.9194  144.5732  160.0384 F       1  UNL1       -0.1659
     35 F         140.1758  144.5382  157.0495 F       1  UNL1       -0.1659
@<TRIPOS>BOND
     1    18    19    1
     2    19    20    1
     3    19    17    1
     4    17    16    1
     5     5    16    1
     6     5     6    1
     7     6     7    1
     8     7    11    1
     9    11    12    1
    10    11    13    1
    11    13    14    1
    12    13    15    1
    13     7     8    1
    14     8     9    1
    15     9    10    1
    16    10     1    1
    17     1     2   am
    18     2     3    2
    19     2    21    1
    20    21    22    1
    21    22    23   am
    22    23    24    2
    23    23    26    1
    24    26    27   ar
    25    27    28   ar
    26    28    29   ar
    27    29    30   ar
    28    30    32    1
    29    32    33    1
    30    32    34    1
    31    32    35    1
    32    30    31   ar
    33    10     5    1
    34    31    26   ar
    35     1     4    1
    36    22    25    1
@<TRIPOS>MOLECULE
*****
 35 36 0 0 0
SMALL
GASTEIGER

@<TRIPOS>ATOM
      1 N         140.9057  144.6626  161.7998 N.am    1  UNL1       -0.3046
      2 C         142.3043  144.3906  162.2686 C.2     1  UNL1        0.2425
      3 O         143.3598  143.9840  161.2834 O.2     1  UNL1       -0.2733
      4 H         140.2130  144.9295  162.4464 H       1  UNL1        0.1494
      5 C         139.9114  143.2740  159.8419 C.3     1  UNL1        0.0193
      6 C         139.5683  143.1394  158.3879 C.3     1  UNL1        0.0176
      7 C         139.8761  144.2586  157.4379 C.3     1  UNL1        0.0576
      8 C         140.5271  145.5124  157.9418 C.3     1  UNL1        0.0176
      9 C         140.8703  145.6471  159.3957 C.3     1  UNL1        0.0209
     10 C         140.5625  144.5279  160.3458 C.3     1  UNL1        0.0716
     11 N         139.5329  144.1239  155.9838 N.3     1  UNL1       -0.2741
     12 C         140.4637  143.3989  155.0576 C.3     1  UNL1        0.0896
     13 C         138.2589  144.7141  155.4562 C.3     1  UNL1        0.0576
     14 C         138.2199  146.1503  155.0249 C.3     1  UNL1        0.0173
     15 C         137.0239  143.8683  155.3597 C.3     1  UNL1        0.0173
     16 C         139.6036  142.1548  160.7920 C.3     1  UNL1        0.0017
     17 C         138.1784  141.8045  161.1016 C.3     1  UNL1        0.0001
     18 C         137.2939  142.0714  163.5299 C.3     1  UNL1        0.0000
     19 C         137.8256  141.2020  162.4292 C.3     1  UNL1        0.0000
     20 C         138.0045  139.7301  162.6562 C.3     1  UNL1        0.0000
     21 C         142.6476  144.5253  163.7226 C.3     1  UNL1        0.1759
     22 N         142.2359  143.4577  164.6924 N.am    1  UNL1       -0.2931
     23 C         140.8222  143.4016  165.1906 C.2     1  UNL1        0.2462
     24 O         139.8201  144.4132  164.7189 O.2     1  UNL1       -0.2701
     25 H         142.8936  142.7937  165.0020 H       1  UNL1        0.1502
     26 C         140.4105  142.3339  166.1605 C.ar    1  UNL1        0.0533
     27 C         140.5636  142.5608  167.6352 C.ar    1  UNL1        0.0045
     28 C         140.1519  141.4931  168.6050 C.ar    1  UNL1        0.0001
     29 C         139.5871  140.1985  168.1000 C.ar    1  UNL1        0.0039
     30 C         139.4340  139.9716  166.6252 C.ar    1  UNL1        0.0716
     31 C         139.8457  141.0393  165.6555 C.ar    1  UNL1        0.0084
     32 C         138.8692  138.6770  166.1202 C.3     1  UNL1        0.4186
     33 F         138.3044  137.3825  165.6152 F       1  UNL1       -0.1659
     34 F         137.5551  138.9974  166.7687 F       1  UNL1       -0.1659
     35 F         140.1833  138.3567  165.4717 F       1  UNL1       -0.1659
@<TRIPOS>BOND
     1    18    19    1
     2    19    20    1
     3    19    17    1
     4    17    16    1
     5     5    16    1
     6     5     6    1
     7     6     7    1
     8     7    11    1
     9    11    12    1
    10    11    13    1
    11    13    14    1
    12    13    15    1
    13     7     8    1
    14     8     9    1
    15     9    10    1
    16    10     1    1
    17     1     2   am
    18     2     3    2
    19     2    21    1
    20    21    22    1
    21    22    23   am
    22    23    24    2
    23    23    26    1
    24    26    27   ar
    25    27    28   ar
    26    28    29   ar
    27    29    30   ar
    28    30    32    1
    29    32    33    1
    30    32    34    1
    31    32    35    1
    32    30    31   ar
    33    10     5    1
    34    31    26   ar
    35     1     4    1
    36    22    25    1
@<TRIPOS>MOLECULE
*****
 35 36 0 0 0
SMALL
GASTEIGER

@<TRIPOS>ATOM
      1 N         142.8558  142.6470  162.7959 N.am    1  UNL1       -0.3046
      2 C         144.0401  143.4254  163.2871 C.2     1  UNL1        0.2425
      3 O         144.5230  144.6202  162.5196 O.2     1  UNL1       -0.2733
      4 H         142.5388  141.8627  163.2997 H       1  UNL1        0.1494
      5 C         141.1803  144.2038  161.5634 C.3     1  UNL1        0.0193
      6 C         140.4789  144.6201  160.3046 C.3     1  UNL1        0.0176
      7 C         140.7514  143.8960  159.0195 C.3     1  UNL1        0.0576
      8 C         141.7254  142.7556  158.9932 C.3     1  UNL1        0.0176
      9 C         142.4268  142.3392  160.2520 C.3     1  UNL1        0.0209
     10 C         142.1543  143.0633  161.5371 C.3     1  UNL1        0.0716
     11 N         140.0499  144.3124  157.7607 N.3     1  UNL1       -0.2741
     12 C         138.9081  143.4952  157.2330 C.3     1  UNL1        0.0896
     13 C         140.4902  145.5459  157.0296 C.3     1  UNL1        0.0576
     14 C         139.4836  146.3840  156.2986 C.3     1  UNL1        0.0173
     15 C         141.9371  145.9414  157.0295 C.3     1  UNL1        0.0173
     16 C         140.9078  144.9279  162.8484 C.3     1  UNL1        0.0017
     17 C         139.5120  144.9869  163.3946 C.3     1  UNL1        0.0001
     18 C         138.4267  145.0417  165.7546 C.3     1  UNL1        0.0000
     19 C         139.1840  144.3049  164.6898 C.3     1  UNL1        0.0000
     20 C         139.6132  142.8863  164.9201 C.3     1  UNL1        0.0000
     21 C         144.7416  143.0090  164.5460 C.3     1  UNL1        0.1759
     22 N         143.9953  142.9823  165.8468 N.am    1  UNL1       -0.2931
     23 C         143.1983  141.7706  166.2294 C.2     1  UNL1        0.2462
     24 O         143.1477  140.5855  165.3113 O.2     1  UNL1       -0.2701
     25 H         144.0284  143.7601  166.4494 H       1  UNL1        0.1502
     26 C         142.4519  141.7438  167.5303 C.ar    1  UNL1        0.0533
     27 C         143.0049  142.4591  168.7271 C.ar    1  UNL1        0.0045
     28 C         142.2585  142.4324  170.0279 C.ar    1  UNL1        0.0001
     29 C         140.9590  141.6903  170.1319 C.ar    1  UNL1        0.0039
     30 C         140.4060  140.9751  168.9350 C.ar    1  UNL1        0.0716
     31 C         141.1524  141.0018  167.6342 C.ar    1  UNL1        0.0084
     32 C         139.1065  140.2330  169.0389 C.3     1  UNL1        0.4186
     33 F         137.8070  139.4910  169.1429 F       1  UNL1       -0.1659
     34 F         139.4713  139.4248  167.8291 F       1  UNL1       -0.1659
     35 F         138.7417  141.0413  170.2488 F       1  UNL1       -0.1659
@<TRIPOS>BOND
     1    18    19    1
     2    19    20    1
     3    19    17    1
     4    17    16    1
     5     5    16    1
     6     5     6    1
     7     6     7    1
     8     7    11    1
     9    11    12    1
    10    11    13    1
    11    13    14    1
    12    13    15    1
    13     7     8    1
    14     8     9    1
    15     9    10    1
    16    10     1    1
    17     1     2   am
    18     2     3    2
    19     2    21    1
    20    21    22    1
    21    22    23   am
    22    23    24    2
    23    23    26    1
    24    26    27   ar
    25    27    28   ar
    26    28    29   ar
    27    29    30   ar
    28    30    32    1
    29    32    33    1
    30    32    34    1
    31    32    35    1
    32    30    31   ar
    33    10     5    1
    34    31    26   ar
    35     1     4    1
    36    22    25    1
@<TRIPOS>MOLECULE
*****
 35 36 0 0 0
SMALL
GASTEIGER

@<TRIPOS>ATOM
      1 N         142.0875  137.8638  161.0868 N.am    1  UNL1       -0.3046
      2 C         142.1557  138.8560  159.9640 C.2     1  UNL1        0.2425
      3 O         141.5314  140.2108  160.1213 O.2     1  UNL1       -0.2733
      4 H         142.4972  136.9746  160.9835 H       1  UNL1        0.1494
      5 C         142.1881  138.7560  163.5248 C.3     1  UNL1        0.0193
      6 C         141.4956  139.1185  164.8050 C.3     1  UNL1        0.0176
      7 C         140.0100  138.9514  164.9275 C.3     1  UNL1        0.0576
      8 C         139.2168  138.4218  163.7697 C.3     1  UNL1        0.0176
      9 C         139.9093  138.0592  162.4895 C.3     1  UNL1        0.0209
     10 C         141.3950  138.2263  162.3671 C.3     1  UNL1        0.0716
     11 N         139.3175  139.3139  166.2078 N.3     1  UNL1       -0.2741
     12 C         138.0406  138.6262  166.5906 C.3     1  UNL1        0.0896
     13 C         139.9019  140.3642  167.1052 C.3     1  UNL1        0.0576
     14 C         140.0498  141.7735  166.6132 C.3     1  UNL1        0.0173
     15 C         140.3384  140.0052  168.4947 C.3     1  UNL1        0.0173
     16 C         143.6737  138.9231  163.4024 C.3     1  UNL1        0.0017
     17 C         144.4448  139.6011  164.4958 C.3     1  UNL1        0.0001
     18 C         145.7547  141.6508  163.5830 C.3     1  UNL1        0.0000
     19 C         144.6681  141.0836  164.4478 C.3     1  UNL1        0.0000
     20 C         143.8049  141.9989  165.2645 C.3     1  UNL1        0.0000
     21 C         142.8482  138.4934  158.6837 C.3     1  UNL1        0.1759
     22 N         142.9836  137.0535  158.2860 N.am    1  UNL1       -0.2931
     23 C         142.4359  136.5840  156.9708 C.2     1  UNL1        0.2462
     24 O         141.7528  137.5545  156.0534 O.2     1  UNL1       -0.2701
     25 H         143.4319  136.4166  158.8881 H       1  UNL1        0.1502
     26 C         142.5713  135.1440  156.5731 C.ar    1  UNL1        0.0533
     27 C         141.7523  134.5984  155.4411 C.ar    1  UNL1        0.0045
     28 C         141.8878  133.1585  155.0434 C.ar    1  UNL1        0.0001
     29 C         142.8422  132.2642  155.7776 C.ar    1  UNL1        0.0039
     30 C         143.6613  132.8098  156.9096 C.ar    1  UNL1        0.0716
     31 C         143.5258  134.2497  157.3073 C.ar    1  UNL1        0.0084
     32 C         144.6157  131.9155  157.6439 C.3     1  UNL1        0.4186
     33 F         145.5702  131.0211  158.3782 F       1  UNL1       -0.1659
     34 F         144.0862  130.7316  156.8903 F       1  UNL1       -0.1659
     35 F         145.1453  133.0994  158.3975 F       1  UNL1       -0.1659
@<TRIPOS>BOND
     1    18    19    1
     2    19    20    1
     3    19    17    1
     4    17    16    1
     5     5    16    1
     6     5     6    1
     7     6     7    1
     8     7    11    1
     9    11    12    1
    10    11    13    1
    11    13    14    1
    12    13    15    1
    13     7     8    1
    14     8     9    1
    15     9    10    1
    16    10     1    1
    17     1     2   am
    18     2     3    2
    19     2    21    1
    20    21    22    1
    21    22    23   am
    22    23    24    2
    23    23    26    1
    24    26    27   ar
    25    27    28   ar
    26    28    29   ar
    27    29    30   ar
    28    30    32    1
    29    32    33    1
    30    32    34    1
    31    32    35    1
    32    30    31   ar
    33    10     5    1
    34    31    26   ar
    35     1     4    1
    36    22    25    1
@<TRIPOS>MOLECULE
*****
 35 36 0 0 0
SMALL
GASTEIGER

@<TRIPOS>ATOM
      1 N         139.1559  141.6482  163.9168 N.am    1  UNL1       -0.3046
      2 C         138.2266  142.7588  163.5259 C.2     1  UNL1        0.2425
      3 O         137.7697  143.7512  164.5538 O.2     1  UNL1       -0.2733
      4 H         139.4557  140.9969  163.2421 H       1  UNL1        0.1494
      5 C         139.1637  140.3865  166.1879 C.3     1  UNL1        0.0193
      6 C         139.6363  140.2683  167.6066 C.3     1  UNL1        0.0176
      7 C         140.5735  141.2934  168.1729 C.3     1  UNL1        0.0576
      8 C         141.0382  142.4368  167.3205 C.3     1  UNL1        0.0176
      9 C         140.5657  142.5551  165.9018 C.3     1  UNL1        0.0209
     10 C         139.6284  141.5299  165.3355 C.3     1  UNL1        0.0716
     11 N         141.0460  141.1751  169.5916 N.3     1  UNL1       -0.2741
     12 C         140.1657  141.6340  170.7161 C.3     1  UNL1        0.0896
     13 C         142.3989  140.5979  169.8859 C.3     1  UNL1        0.0576
     14 C         143.5882  141.5028  170.0164 C.3     1  UNL1        0.0173
     15 C         142.5626  139.1159  170.0497 C.3     1  UNL1        0.0173
     16 C         138.2265  139.3614  165.6217 C.3     1  UNL1        0.0017
     17 C         138.7104  137.9658  165.3604 C.3     1  UNL1        0.0001
     18 C         141.1642  137.4505  164.6795 C.3     1  UNL1        0.0000
     19 C         139.7381  137.7152  164.2969 C.3     1  UNL1        0.0000
     20 C         139.3398  137.7291  162.8509 C.3     1  UNL1        0.0000
     21 C         137.7540  142.8772  162.1072 C.3     1  UNL1        0.1759
     22 N         138.7506  142.9793  160.9908 N.am    1  UNL1       -0.2931
     23 C         139.5068  144.2566  160.7751 C.2     1  UNL1        0.2462
     24 O         139.2664  145.4318  161.6757 O.2     1  UNL1       -0.2701
     25 H         138.9084  142.2080  160.3997 H       1  UNL1        0.1502
     26 C         140.5034  144.3588  159.6586 C.ar    1  UNL1        0.0533
     27 C         141.7720  143.5599  159.7102 C.ar    1  UNL1        0.0045
     28 C         142.7685  143.6621  158.5938 C.ar    1  UNL1        0.0001
     29 C         142.4966  144.5632  157.4259 C.ar    1  UNL1        0.0039
     30 C         141.2281  145.3620  157.3743 C.ar    1  UNL1        0.0716
     31 C         140.2315  145.2598  158.4907 C.ar    1  UNL1        0.0084
     32 C         140.9561  146.2630  156.2063 C.3     1  UNL1        0.4186
     33 F         140.6842  147.1641  155.0383 F       1  UNL1       -0.1659
     34 F         139.8206  146.8933  156.9569 F       1  UNL1       -0.1659
     35 F         142.0916  145.6328  155.4557 F       1  UNL1       -0.1659
@<TRIPOS>BOND
     1    18    19    1
     2    19    20    1
     3    19    17    1
     4    17    16    1
     5     5    16    1
     6     5     6    1
     7     6     7    1
     8     7    11    1
     9    11    12    1
    10    11    13    1
    11    13    14    1
    12    13    15    1
    13     7     8    1
    14     8     9    1
    15     9    10    1
    16    10     1    1
    17     1     2   am
    18     2     3    2
    19     2    21    1
    20    21    22    1
    21    22    23   am
    22    23    24    2
    23    23    26    1
    24    26    27   ar
    25    27    28   ar
    26    28    29   ar
    27    29    30   ar
    28    30    32    1
    29    32    33    1
    30    32    34    1
    31    32    35    1
    32    30    31   ar
    33    10     5    1
    34    31    26   ar
    35     1     4    1
    36    22    25    1
@<TRIPOS>MOLECULE
*****
 35 36 0 0 0
SMALL
GASTEIGER

@<TRIPOS>ATOM
      1 N         141.8314  142.9939  163.2187 N.am    1  UNL1       -0.3046
      2 C         141.7984  144.4252  162.7714 C.2     1  UNL1        0.2425
      3 O         141.8439  145.5292  163.7859 O.2     1  UNL1       -0.2733
      4 H         141.8015  142.2693  162.5529 H       1  UNL1        0.1494
      5 C         143.2333  142.6975  165.3860 C.3     1  UNL1        0.0193
      6 C         143.3119  142.3701  166.8477 C.3     1  UNL1        0.0176
      7 C         142.0670  142.0118  167.6039 C.3     1  UNL1        0.0576
      8 C         140.7436  141.9808  166.8985 C.3     1  UNL1        0.0176
      9 C         140.6651  142.3081  165.4368 C.3     1  UNL1        0.0209
     10 C         141.9100  142.6665  164.6805 C.3     1  UNL1        0.0716
     11 N         142.1456  141.6844  169.0657 N.3     1  UNL1       -0.2741
     12 C         142.8068  142.6403  170.0139 C.3     1  UNL1        0.0896
     13 C         141.5629  140.4012  169.5793 C.3     1  UNL1        0.0576
     14 C         140.1180  140.3400  169.9777 C.3     1  UNL1        0.0173
     15 C         142.4250  139.1791  169.6945 C.3     1  UNL1        0.0173
     16 C         144.4782  143.0559  164.6297 C.3     1  UNL1        0.0017
     17 C         145.4326  141.9801  164.2034 C.3     1  UNL1        0.0001
     18 C         144.5099  140.7293  162.1215 C.3     1  UNL1        0.0000
     19 C         144.9127  140.7255  163.5664 C.3     1  UNL1        0.0000
     20 C         144.7955  139.4672  164.3744 C.3     1  UNL1        0.0000
     21 C         141.7198  144.7526  161.3097 C.3     1  UNL1        0.1759
     22 N         142.5731  144.0067  160.3271 N.am    1  UNL1       -0.2931
     23 C         142.1380  142.6619  159.8252 C.2     1  UNL1        0.2462
     24 O         140.8495  142.0629  160.3059 O.2     1  UNL1       -0.2701
     25 H         143.4188  144.3998  160.0117 H       1  UNL1        0.1502
     26 C         142.9913  141.9159  158.8426 C.ar    1  UNL1        0.0533
     27 C         142.5367  140.5895  158.3098 C.ar    1  UNL1        0.0045
     28 C         143.3900  139.8436  157.3272 C.ar    1  UNL1        0.0001
     29 C         144.6980  140.4241  156.8775 C.ar    1  UNL1        0.0039
     30 C         145.1526  141.7505  157.4104 C.ar    1  UNL1        0.0716
     31 C         144.2993  142.4964  158.3929 C.ar    1  UNL1        0.0084
     32 C         146.4606  142.3310  156.9607 C.3     1  UNL1        0.4186
     33 F         147.7686  142.9115  156.5110 F       1  UNL1       -0.1659
     34 F         146.5738  143.0793  158.2558 F       1  UNL1       -0.1659
     35 F         146.3474  141.5827  155.6656 F       1  UNL1       -0.1659
@<TRIPOS>BOND
     1    18    19    1
     2    19    20    1
     3    19    17    1
     4    17    16    1
     5     5    16    1
     6     5     6    1
     7     6     7    1
     8     7    11    1
     9    11    12    1
    10    11    13    1
    11    13    14    1
    12    13    15    1
    13     7     8    1
    14     8     9    1
    15     9    10    1
    16    10     1    1
    17     1     2   am
    18     2     3    2
    19     2    21    1
    20    21    22    1
    21    22    23   am
    22    23    24    2
    23    23    26    1
    24    26    27   ar
    25    27    28   ar
    26    28    29   ar
    27    29    30   ar
    28    30    32    1
    29    32    33    1
    30    32    34    1
    31    32    35    1
    32    30    31   ar
    33    10     5    1
    34    31    26   ar
    35     1     4    1
    36    22    25    1
@<TRIPOS>MOLECULE
*****
 35 36 0 0 0
SMALL
GASTEIGER

@<TRIPOS>ATOM
      1 N         138.4134  139.1750  160.5784 N.am    1  UNL1       -0.3046
      2 C         139.6758  138.9481  159.8007 C.2     1  UNL1        0.2425
      3 O         140.9636  138.6821  160.5222 O.2     1  UNL1       -0.2733
      4 H         137.5681  139.3496  160.1048 H       1  UNL1        0.1494
      5 C         138.0970  140.3655  162.8659 C.3     1  UNL1        0.0193
      6 C         138.1224  140.3264  164.3652 C.3     1  UNL1        0.0176
      7 C         138.4898  139.0577  165.0762 C.3     1  UNL1        0.0576
      8 C         138.8317  137.8282  164.2880 C.3     1  UNL1        0.0176
      9 C         138.8063  137.8673  162.7888 C.3     1  UNL1        0.0209
     10 C         138.4389  139.1360  162.0777 C.3     1  UNL1        0.0716
     11 N         138.5153  139.0187  166.5755 N.3     1  UNL1       -0.2741
     12 C         137.4294  138.3059  167.3257 C.3     1  UNL1        0.0896
     13 C         139.6266  139.6924  167.3246 C.3     1  UNL1        0.0576
     14 C         140.9679  139.8699  166.6768 C.3     1  UNL1        0.0173
     15 C         139.3967  140.1885  168.7213 C.3     1  UNL1        0.0173
     16 C         137.7296  141.6341  162.1549 C.3     1  UNL1        0.0017
     17 C         138.7441  142.7281  162.0003 C.3     1  UNL1        0.0001
     18 C         137.7813  144.0087  164.0456 C.3     1  UNL1        0.0000
     19 C         138.6104  143.9928  162.7956 C.3     1  UNL1        0.0000
     20 C         139.3058  145.2417  162.3410 C.3     1  UNL1        0.0000
     21 C         139.6503  138.9872  158.3013 C.3     1  UNL1        0.1759
     22 N         139.9719  137.7520  157.5134 N.am    1  UNL1       -0.2931
     23 C         141.3818  137.4884  157.0744 C.2     1  UNL1        0.2462
     24 O         142.4700  138.4599  157.4235 O.2     1  UNL1       -0.2701
     25 H         139.2576  137.1144  157.2843 H       1  UNL1        0.1502
     26 C         141.7034  136.2532  156.2864 C.ar    1  UNL1        0.0533
     27 C         140.9559  135.9553  155.0205 C.ar    1  UNL1        0.0045
     28 C         141.2776  134.7202  154.2326 C.ar    1  UNL1        0.0001
     29 C         142.3468  133.7830  154.7104 C.ar    1  UNL1        0.0039
     30 C         143.0943  134.0809  155.9763 C.ar    1  UNL1        0.0716
     31 C         142.7727  135.3160  156.7642 C.ar    1  UNL1        0.0084
     32 C         144.1636  133.1436  156.4541 C.3     1  UNL1        0.4186
     33 F         145.2328  132.2064  156.9320 F       1  UNL1       -0.1659
     34 F         144.1159  132.4199  155.1412 F       1  UNL1       -0.1659
     35 F         144.2112  133.8674  157.7671 F       1  UNL1       -0.1659
@<TRIPOS>BOND
     1    18    19    1
     2    19    20    1
     3    19    17    1
     4    17    16    1
     5     5    16    1
     6     5     6    1
     7     6     7    1
     8     7    11    1
     9    11    12    1
    10    11    13    1
    11    13    14    1
    12    13    15    1
    13     7     8    1
    14     8     9    1
    15     9    10    1
    16    10     1    1
    17     1     2   am
    18     2     3    2
    19     2    21    1
    20    21    22    1
    21    22    23   am
    22    23    24    2
    23    23    26    1
    24    26    27   ar
    25    27    28   ar
    26    28    29   ar
    27    29    30   ar
    28    30    32    1
    29    32    33    1
    30    32    34    1
    31    32    35    1
    32    30    31   ar
    33    10     5    1
    34    31    26   ar
    35     1     4    1
    36    22    25    1
@<TRIPOS>MOLECULE
*****
 35 36 0 0 0
SMALL
GASTEIGER

@<TRIPOS>ATOM
      1 N         138.5517  139.8937  164.1569 N.am    1  UNL1       -0.3046
      2 C         139.1153  138.7078  163.4317 C.2     1  UNL1        0.2425
      3 O         140.1969  137.8849  164.0667 O.2     1  UNL1       -0.2733
      4 H         137.8419  140.4338  163.7401 H       1  UNL1        0.1494
      5 C         140.0107  141.4138  165.6770 C.3     1  UNL1        0.0193
      6 C         140.5286  141.7768  167.0371 C.3     1  UNL1        0.0176
      7 C         140.1054  140.9828  168.2373 C.3     1  UNL1        0.0576
      8 C         139.1643  139.8258  168.0774 C.3     1  UNL1        0.0176
      9 C         138.6464  139.4628  166.7173 C.3     1  UNL1        0.0209
     10 C         139.0696  140.2568  165.5171 C.3     1  UNL1        0.0716
     11 N         140.6233  141.3459  169.5975 N.3     1  UNL1       -0.2741
     12 C         140.4709  140.3849  170.7391 C.3     1  UNL1        0.0896
     13 C         141.2935  142.6699  169.8160 C.3     1  UNL1        0.0576
     14 C         140.4708  143.9208  169.9087 C.3     1  UNL1        0.0173
     15 C         142.7864  142.7431  169.9418 C.3     1  UNL1        0.0173
     16 C         140.4340  142.2077  164.4768 C.3     1  UNL1        0.0017
     17 C         140.2090  143.6903  164.4409 C.3     1  UNL1        0.0001
     18 C         138.4251  145.0225  165.7799 C.3     1  UNL1        0.0000
     19 C         138.8190  144.2411  164.5616 C.3     1  UNL1        0.0000
     20 C         137.8230  144.0106  163.4639 C.3     1  UNL1        0.0000
     21 C         138.5974  138.3447  162.0715 C.3     1  UNL1        0.1759
     22 N         138.8657  139.2448  160.9020 N.am    1  UNL1       -0.2931
     23 C         138.1462  140.5556  160.7841 C.2     1  UNL1        0.2462
     24 O         137.1586  140.9664  161.8356 O.2     1  UNL1       -0.2701
     25 H         139.5139  138.9752  160.2119 H       1  UNL1        0.1502
     26 C         138.4145  141.4558  159.6145 C.ar    1  UNL1        0.0533
     27 C         139.3739  142.6004  159.7536 C.ar    1  UNL1        0.0045
     28 C         139.6420  143.5005  158.5840 C.ar    1  UNL1        0.0001
     29 C         138.9508  143.2560  157.2754 C.ar    1  UNL1        0.0039
     30 C         137.9914  142.1114  157.1364 C.ar    1  UNL1        0.0716
     31 C         137.7233  141.2113  158.3059 C.ar    1  UNL1        0.0084
     32 C         137.3002  141.8669  155.8277 C.3     1  UNL1        0.4186
     33 F         136.6090  141.6224  154.5191 F       1  UNL1       -0.1659
     34 F         137.7006  140.4225  155.8862 F       1  UNL1       -0.1659
     35 F         136.8998  143.3113  155.7693 F       1  UNL1       -0.1659
@<TRIPOS>BOND
     1    18    19    1
     2    19    20    1
     3    19    17    1
     4    17    16    1
     5     5    16    1
     6     5     6    1
     7     6     7    1
     8     7    11    1
     9    11    12    1
    10    11    13    1
    11    13    14    1
    12    13    15    1
    13     7     8    1
    14     8     9    1
    15     9    10    1
    16    10     1    1
    17     1     2   am
    18     2     3    2
    19     2    21    1
    20    21    22    1
    21    22    23   am
    22    23    24    2
    23    23    26    1
    24    26    27   ar
    25    27    28   ar
    26    28    29   ar
    27    29    30   ar
    28    30    32    1
    29    32    33    1
    30    32    34    1
    31    32    35    1
    32    30    31   ar
    33    10     5    1
    34    31    26   ar
    35     1     4    1
    36    22    25    1
@<TRIPOS>MOLECULE
*****
 35 36 0 0 0
SMALL
GASTEIGER

@<TRIPOS>ATOM
      1 N         139.7305  139.7196  162.2836 N.am    1  UNL1       -0.3046
      2 C         138.8211  138.5832  162.6462 C.2     1  UNL1        0.2425
      3 O         137.6343  138.2681  161.7847 O.2     1  UNL1       -0.2733
      4 H         140.5094  139.9264  162.8490 H       1  UNL1        0.1494
      5 C         138.4868  141.6863  161.1278 C.3     1  UNL1        0.0193
      6 C         138.2094  142.5076  159.9037 C.3     1  UNL1        0.0176
      7 C         138.8983  142.1837  158.6113 C.3     1  UNL1        0.0576
      8 C         139.8645  141.0384  158.5428 C.3     1  UNL1        0.0176
      9 C         140.1419  140.2171  159.7669 C.3     1  UNL1        0.0209
     10 C         139.4531  140.5410  161.0594 C.3     1  UNL1        0.0716
     11 N         138.6209  143.0051  157.3871 N.3     1  UNL1       -0.2741
     12 C         139.5357  144.1354  157.0192 C.3     1  UNL1        0.0896
     13 C         137.4286  142.6961  156.5309 C.3     1  UNL1        0.0576
     14 C         136.6269  141.4533  156.7818 C.3     1  UNL1        0.0173
     15 C         137.0380  143.6298  155.4239 C.3     1  UNL1        0.0173
     16 C         137.7979  142.0102  162.4203 C.3     1  UNL1        0.0017
     17 C         137.8868  143.3944  162.9912 C.3     1  UNL1        0.0001
     18 C         139.9574  142.8304  164.4557 C.3     1  UNL1        0.0000
     19 C         138.7273  143.6519  164.2067 C.3     1  UNL1        0.0000
     20 C         138.3377  144.7309  165.1731 C.3     1  UNL1        0.0000
     21 C         139.0985  137.7618  163.8703 C.3     1  UNL1        0.1759
     22 N         139.9734  138.3096  164.9586 N.am    1  UNL1       -0.2931
     23 C         139.4724  139.4170  165.8376 C.2     1  UNL1        0.2462
     24 O         138.0965  139.9766  165.6282 O.2     1  UNL1       -0.2701
     25 H         140.8764  137.9423  165.0961 H       1  UNL1        0.1502
     26 C         140.3472  139.9649  166.9260 C.ar    1  UNL1        0.0533
     27 C         141.7766  139.5230  167.0331 C.ar    1  UNL1        0.0045
     28 C         142.6514  140.0708  168.1215 C.ar    1  UNL1        0.0001
     29 C         142.0968  141.0606  169.1027 C.ar    1  UNL1        0.0039
     30 C         140.6674  141.5025  168.9956 C.ar    1  UNL1        0.0716
     31 C         139.7926  140.9546  167.9072 C.ar    1  UNL1        0.0084
     32 C         140.1128  142.4922  169.9768 C.3     1  UNL1        0.4186
     33 F         139.5581  143.4819  170.9580 F       1  UNL1       -0.1659
     34 F         138.9082  141.6205  170.1752 F       1  UNL1       -0.1659
     35 F         141.3173  143.3638  169.7784 F       1  UNL1       -0.1659
@<TRIPOS>BOND
     1    18    19    1
     2    19    20    1
     3    19    17    1
     4    17    16    1
     5     5    16    1
     6     5     6    1
     7     6     7    1
     8     7    11    1
     9    11    12    1
    10    11    13    1
    11    13    14    1
    12    13    15    1
    13     7     8    1
    14     8     9    1
    15     9    10    1
    16    10     1    1
    17     1     2   am
    18     2     3    2
    19     2    21    1
    20    21    22    1
    21    22    23   am
    22    23    24    2
    23    23    26    1
    24    26    27   ar
    25    27    28   ar
    26    28    29   ar
    27    29    30   ar
    28    30    32    1
    29    32    33    1
    30    32    34    1
    31    32    35    1
    32    30    31   ar
    33    10     5    1
    34    31    26   ar
    35     1     4    1
    36    22    25    1
