@<TRIPOS>MOLECULE
*****
 36 39 0 0 0
SMALL
GASTEIGER

@<TRIPOS>ATOM
      1 C         139.6572  142.7452  164.4563 C.ar    1  UNL1        0.0308
      2 C         140.4462  143.9322  163.9887 C.ar    1  UNL1        0.0128
      3 C         139.9849  144.2792  162.6042 C.ar    1  UNL1        0.0732
      4 C         138.9108  143.3066  162.2161 C.ar    1  UNL1        0.0841
      5 S         138.7083  142.3586  163.3608 S.2     1  UNL1       -0.0721
      6 C         140.0654  140.7028  168.4453 C.ar    1  UNL1        0.0017
      7 C         139.4768  139.9631  167.2807 C.ar    1  UNL1       -0.0020
      8 C         139.3408  140.6439  165.9510 C.ar    1  UNL1        0.0002
      9 C         139.7933  142.0644  165.7860 C.ar    1  UNL1        0.0060
     10 C         140.3818  142.8041  166.9506 C.ar    1  UNL1        0.0002
     11 C         140.5178  142.1233  168.2803 C.ar    1  UNL1       -0.0020
     12 C         138.7790  140.3708  170.0991 C.3     1  UNL1        0.0339
     13 C         140.2014  140.0220  169.7750 C.3     1  UNL1        0.1071
     14 C         141.6238  139.6732  169.4508 C.3     1  UNL1        0.0339
     15 O         140.3375  139.3412  171.1046 O.3     1  UNL1       -0.3827
     16 H         140.8640  138.5331  171.0017 H       1  UNL1        0.2107
     17 C         140.5061  145.4016  161.7566 C.2     1  UNL1        0.2445
     18 N         141.7758  145.2258  160.9775 N.am    1  UNL1       -0.3253
     19 O         139.7578  146.6998  161.6881 O.2     1  UNL1       -0.2703
     20 H         142.2670  144.3738  161.0224 H       1  UNL1        0.1453
     21 H         142.1179  145.9625  160.4212 H       1  UNL1        0.1453
     22 N         138.1694  143.2858  160.9124 N.pl3   1  UNL1       -0.2929
     23 H         137.4697  143.9547  160.7332 H       1  UNL1        0.1541
     24 C         138.4941  142.2456  159.8815 C.ar    1  UNL1        0.1321
     25 C         138.4083  142.5833  158.4225 C.ar    1  UNL1        0.0344
     26 C         138.7330  141.5432  157.3916 C.ar    1  UNL1        0.0041
     27 C         139.1436  140.1655  157.8197 C.ar    1  UNL1        0.0162
     28 C         139.2294  139.8279  159.2787 C.ar    1  UNL1        0.0766
     29 N         138.9047  140.8680  160.3096 N.ar    1  UNL1       -0.2335
     30 C         139.6399  138.4500  159.7068 C.3     1  UNL1        0.1188
     31 N         139.8457  138.1468  161.1614 N.3     1  UNL1       -0.2633
     32 C         138.6640  138.0330  162.0783 C.3     1  UNL1        0.1049
     33 C         138.8699  137.7298  163.5328 C.3     1  UNL1        0.1595
     34 O         140.2573  137.5404  164.0704 O.3     1  UNL1       -0.3508
     35 C         141.4390  137.6542  163.1535 C.3     1  UNL1        0.1595
     36 C         141.2332  137.9574  161.6991 C.3     1  UNL1        0.1049
@<TRIPOS>BOND
     1    12    13    1
     2    13    14    1
     3    13    15    1
     4    13     6    1
     5     6     7   ar
     6     7     8   ar
     7     8     9   ar
     8     9     1    1
     9     1     2   ar
    10     2     3   ar
    11     3    17    1
    12    17    18   am
    13    17    19    2
    14     3     4   ar
    15     4    22    1
    16    22    24    1
    17    24    25   ar
    18    25    26   ar
    19    26    27   ar
    20    27    28   ar
    21    28    30    1
    22    30    31    1
    23    31    32    1
    24    32    33    1
    25    33    34    1
    26    34    35    1
    27    35    36    1
    28    28    29   ar
    29     4     5   ar
    30     9    10   ar
    31    10    11   ar
    32    11     6   ar
    33     5     1   ar
    34    29    24   ar
    35    36    31    1
    36    15    16    1
    37    18    20    1
    38    18    21    1
    39    22    23    1
@<TRIPOS>MOLECULE
*****
 36 39 0 0 0
SMALL
GASTEIGER

@<TRIPOS>ATOM
      1 C         143.6682  140.6833  164.4320 C.ar    1  UNL1        0.0308
      2 C         143.6107  139.4616  163.5636 C.ar    1  UNL1        0.0128
      3 C         144.0338  139.8562  162.1797 C.ar    1  UNL1        0.0732
      4 C         144.3528  141.3219  162.1927 C.ar    1  UNL1        0.0841
      5 S         144.1268  141.8330  163.5848 S.2     1  UNL1       -0.0721
      6 C         142.6445  140.8670  168.8102 C.ar    1  UNL1        0.0017
      7 C         142.6571  139.5472  168.0976 C.ar    1  UNL1       -0.0020
      8 C         142.9984  139.4859  166.6383 C.ar    1  UNL1        0.0002
      9 C         143.3270  140.7445  165.8914 C.ar    1  UNL1        0.0060
     10 C         143.3144  142.0644  166.6039 C.ar    1  UNL1        0.0002
     11 C         142.9732  142.1256  168.0633 C.ar    1  UNL1       -0.0020
     12 C         142.4276  142.4227  170.2359 C.3     1  UNL1        0.0339
     13 C         142.3033  140.9283  170.2696 C.3     1  UNL1        0.1071
     14 C         142.1791  139.4338  170.3032 C.3     1  UNL1        0.0339
     15 O         141.9621  140.9895  171.7290 O.3     1  UNL1       -0.3827
     16 H         141.2699  140.3394  171.9267 H       1  UNL1        0.2107
     17 C         144.1223  138.9452  160.9913 C.2     1  UNL1        0.2445
     18 N         144.2188  137.4615  161.1894 N.am    1  UNL1       -0.3253
     19 O         144.1144  139.5179  159.6050 O.2     1  UNL1       -0.2703
     20 H         144.2240  137.0856  162.0993 H       1  UNL1        0.1453
     21 H         144.2769  136.8635  160.4094 H       1  UNL1        0.1453
     22 N         144.8163  142.1338  161.0198 N.pl3   1  UNL1       -0.2929
     23 H         145.7735  142.1673  160.7917 H       1  UNL1        0.1541
     24 C         143.8216  142.8948  160.1943 C.ar    1  UNL1        0.1321
     25 C         143.9505  142.9208  158.7001 C.ar    1  UNL1        0.0344
     26 C         142.9558  143.6817  157.8746 C.ar    1  UNL1        0.0041
     27 C         141.8322  144.4167  158.5433 C.ar    1  UNL1        0.0162
     28 C         141.7033  144.3907  160.0375 C.ar    1  UNL1        0.0766
     29 N         142.6980  143.6297  160.8630 N.ar    1  UNL1       -0.2335
     30 C         140.5796  145.1257  160.7063 C.3     1  UNL1        0.1188
     31 N         139.4910  144.3613  161.3997 N.3     1  UNL1       -0.2633
     32 C         138.8291  144.9362  162.6169 C.3     1  UNL1        0.1049
     33 C         137.7406  144.1717  163.3102 C.3     1  UNL1        0.1595
     34 O         137.3139  142.8325  162.7863 O.3     1  UNL1       -0.3508
     35 C         137.9758  142.2577  161.5692 C.3     1  UNL1        0.1595
     36 C         139.0643  143.0221  160.8759 C.3     1  UNL1        0.1049
@<TRIPOS>BOND
     1    12    13    1
     2    13    14    1
     3    13    15    1
     4    13     6    1
     5     6     7   ar
     6     7     8   ar
     7     8     9   ar
     8     9     1    1
     9     1     2   ar
    10     2     3   ar
    11     3    17    1
    12    17    18   am
    13    17    19    2
    14     3     4   ar
    15     4    22    1
    16    22    24    1
    17    24    25   ar
    18    25    26   ar
    19    26    27   ar
    20    27    28   ar
    21    28    30    1
    22    30    31    1
    23    31    32    1
    24    32    33    1
    25    33    34    1
    26    34    35    1
    27    35    36    1
    28    28    29   ar
    29     4     5   ar
    30     9    10   ar
    31    10    11   ar
    32    11     6   ar
    33     5     1   ar
    34    29    24   ar
    35    36    31    1
    36    15    16    1
    37    18    20    1
    38    18    21    1
    39    22    23    1
@<TRIPOS>MOLECULE
*****
 36 39 0 0 0
SMALL
GASTEIGER

@<TRIPOS>ATOM
      1 C         139.4328  141.4411  165.2799 C.ar    1  UNL1        0.0308
      2 C         139.0359  142.7157  164.5958 C.ar    1  UNL1        0.0128
      3 C         138.5163  142.3677  163.2324 C.ar    1  UNL1        0.0732
      4 C         138.5921  140.8781  163.0737 C.ar    1  UNL1        0.0841
      5 S         139.1585  140.3054  164.3392 S.2     1  UNL1       -0.0721
      6 C         141.1456  141.0867  169.4260 C.ar    1  UNL1        0.0017
      7 C         140.5777  139.8779  168.7433 C.ar    1  UNL1       -0.0020
      8 C         140.0068  139.9960  167.3612 C.ar    1  UNL1        0.0002
      9 C         140.0037  141.3230  166.6619 C.ar    1  UNL1        0.0060
     10 C         140.5717  142.5318  167.3446 C.ar    1  UNL1        0.0002
     11 C         141.1426  142.4137  168.7267 C.ar    1  UNL1       -0.0020
     12 C         142.6072  139.8540  170.3449 C.3     1  UNL1        0.0339
     13 C         141.7166  140.9686  170.8080 C.3     1  UNL1        0.1071
     14 C         140.8260  142.0832  171.2712 C.3     1  UNL1        0.0339
     15 O         142.2875  140.8505  172.1901 O.3     1  UNL1       -0.3827
     16 H         142.3985  141.7357  172.5708 H       1  UNL1        0.2107
     17 C         138.0098  143.3389  162.2075 C.2     1  UNL1        0.2445
     18 N         137.4874  144.6778  162.6369 N.am    1  UNL1       -0.3253
     19 O         138.0258  142.9712  160.7534 O.2     1  UNL1       -0.2703
     20 H         137.4769  144.9192  163.5913 H       1  UNL1        0.1453
     21 H         137.1550  145.3153  161.9642 H       1  UNL1        0.1453
     22 N         138.1747  140.0980  161.8624 N.pl3   1  UNL1       -0.2929
     23 H         137.2198  139.9346  161.6871 H       1  UNL1        0.1541
     24 C         139.2122  139.5669  160.9182 C.ar    1  UNL1        0.1321
     25 C         138.8864  139.3978  159.4638 C.ar    1  UNL1        0.0344
     26 C         139.9238  138.8668  158.5197 C.ar    1  UNL1        0.0041
     27 C         141.2871  138.5047  159.0298 C.ar    1  UNL1        0.0162
     28 C         141.6130  138.6738  160.4842 C.ar    1  UNL1        0.0766
     29 N         140.5755  139.2049  161.4284 N.ar    1  UNL1       -0.2335
     30 C         142.9764  138.3118  160.9944 C.3     1  UNL1        0.1188
     31 N         143.7562  139.2965  161.8143 N.3     1  UNL1       -0.2633
     32 C         144.1594  138.9515  163.2173 C.3     1  UNL1        0.1049
     33 C         144.9392  139.9363  164.0371 C.3     1  UNL1        0.1595
     34 O         145.3158  141.2659  163.4539 O.3     1  UNL1       -0.3508
     35 C         144.9127  141.6108  162.0509 C.3     1  UNL1        0.1595
     36 C         144.1329  140.6262  161.2311 C.3     1  UNL1        0.1049
@<TRIPOS>BOND
     1    12    13    1
     2    13    14    1
     3    13    15    1
     4    13     6    1
     5     6     7   ar
     6     7     8   ar
     7     8     9   ar
     8     9     1    1
     9     1     2   ar
    10     2     3   ar
    11     3    17    1
    12    17    18   am
    13    17    19    2
    14     3     4   ar
    15     4    22    1
    16    22    24    1
    17    24    25   ar
    18    25    26   ar
    19    26    27   ar
    20    27    28   ar
    21    28    30    1
    22    30    31    1
    23    31    32    1
    24    32    33    1
    25    33    34    1
    26    34    35    1
    27    35    36    1
    28    28    29   ar
    29     4     5   ar
    30     9    10   ar
    31    10    11   ar
    32    11     6   ar
    33     5     1   ar
    34    29    24   ar
    35    36    31    1
    36    15    16    1
    37    18    20    1
    38    18    21    1
    39    22    23    1
@<TRIPOS>MOLECULE
*****
 36 39 0 0 0
SMALL
GASTEIGER

@<TRIPOS>ATOM
      1 C         139.8689  141.4612  165.0835 C.ar    1  UNL1        0.0308
      2 C         139.0210  142.5820  164.5594 C.ar    1  UNL1        0.0128
      3 C         138.7896  142.3434  163.0967 C.ar    1  UNL1        0.0732
      4 C         139.4946  141.0751  162.7168 C.ar    1  UNL1        0.0841
      5 S         140.1616  140.5298  163.9447 S.2     1  UNL1       -0.0721
      6 C         141.2857  140.9776  169.3272 C.ar    1  UNL1        0.0017
      7 C         141.9760  141.9445  168.4116 C.ar    1  UNL1       -0.0020
      8 C         141.5038  142.1057  166.9971 C.ar    1  UNL1        0.0002
      9 C         140.3411  141.3000  166.4981 C.ar    1  UNL1        0.0060
     10 C         139.6508  140.3330  167.4137 C.ar    1  UNL1        0.0002
     11 C         140.1230  140.1718  168.8282 C.ar    1  UNL1       -0.0020
     12 C         142.6877  139.7226  170.3067 C.3     1  UNL1        0.0339
     13 C         141.7579  140.8163  170.7418 C.3     1  UNL1        0.1071
     14 C         140.8282  141.9101  171.1768 C.3     1  UNL1        0.0339
     15 O         142.2302  140.6551  172.1563 O.3     1  UNL1       -0.3827
     16 H         142.3070  141.5277  172.5730 H       1  UNL1        0.2107
     17 C         137.9932  143.2194  162.1756 C.2     1  UNL1        0.2445
     18 N         137.4916  144.5499  162.6533 N.am    1  UNL1       -0.3253
     19 O         137.6984  142.7649  160.7768 O.2     1  UNL1       -0.2703
     20 H         137.6851  144.8482  163.5713 H       1  UNL1        0.1453
     21 H         136.9689  145.1248  162.0488 H       1  UNL1        0.1453
     22 N         139.5269  140.4600  161.3491 N.pl3   1  UNL1       -0.2929
     23 H         138.8472  139.7959  161.0918 H       1  UNL1        0.1541
     24 C         140.5949  140.8567  160.3733 C.ar    1  UNL1        0.1321
     25 C         140.4466  140.5168  158.9199 C.ar    1  UNL1        0.0344
     26 C         141.5145  140.9134  157.9442 C.ar    1  UNL1        0.0041
     27 C         142.7307  141.6501  158.4218 C.ar    1  UNL1        0.0162
     28 C         142.8790  141.9900  159.8752 C.ar    1  UNL1        0.0766
     29 N         141.8110  141.5933  160.8510 N.ar    1  UNL1       -0.2335
     30 C         144.0953  142.7266  160.3529 C.3     1  UNL1        0.1188
     31 N         144.3876  142.8190  161.8213 N.3     1  UNL1       -0.2633
     32 C         143.8316  143.9559  162.6267 C.3     1  UNL1        0.1049
     33 C         144.1239  144.0481  164.0950 C.3     1  UNL1        0.1595
     34 O         144.9722  143.0037  164.7579 O.3     1  UNL1       -0.3508
     35 C         145.5281  141.8669  163.9526 C.3     1  UNL1        0.1595
     36 C         145.2359  141.7746  162.4843 C.3     1  UNL1        0.1049
@<TRIPOS>BOND
     1    12    13    1
     2    13    14    1
     3    13    15    1
     4    13     6    1
     5     6     7   ar
     6     7     8   ar
     7     8     9   ar
     8     9     1    1
     9     1     2   ar
    10     2     3   ar
    11     3    17    1
    12    17    18   am
    13    17    19    2
    14     3     4   ar
    15     4    22    1
    16    22    24    1
    17    24    25   ar
    18    25    26   ar
    19    26    27   ar
    20    27    28   ar
    21    28    30    1
    22    30    31    1
    23    31    32    1
    24    32    33    1
    25    33    34    1
    26    34    35    1
    27    35    36    1
    28    28    29   ar
    29     4     5   ar
    30     9    10   ar
    31    10    11   ar
    32    11     6   ar
    33     5     1   ar
    34    29    24   ar
    35    36    31    1
    36    15    16    1
    37    18    20    1
    38    18    21    1
    39    22    23    1
@<TRIPOS>MOLECULE
*****
 36 39 0 0 0
SMALL
GASTEIGER

@<TRIPOS>ATOM
      1 C         140.2305  139.9111  164.8869 C.ar    1  UNL1        0.0308
      2 C         139.0366  139.8926  163.9790 C.ar    1  UNL1        0.0128
      3 C         139.4634  139.3111  162.6638 C.ar    1  UNL1        0.0732
      4 C         140.9210  138.9702  162.7589 C.ar    1  UNL1        0.0841
      5 S         141.3951  139.3410  164.1328 S.2     1  UNL1       -0.0721
      6 C         140.3052  141.4132  169.1282 C.ar    1  UNL1        0.0017
      7 C         139.4607  140.2272  168.7673 C.ar    1  UNL1       -0.0020
      8 C         139.4358  139.7265  167.3536 C.ar    1  UNL1        0.0002
      9 C         140.2554  140.4118  166.3007 C.ar    1  UNL1        0.0060
     10 C         141.0999  141.5978  166.6615 C.ar    1  UNL1        0.0002
     11 C         141.1248  142.0985  168.0753 C.ar    1  UNL1       -0.0020
     12 C         140.4601  140.5045  171.0388 C.3     1  UNL1        0.0339
     13 C         140.3301  141.9139  170.5419 C.3     1  UNL1        0.1071
     14 C         140.2000  143.3232  170.0451 C.3     1  UNL1        0.0339
     15 O         140.3550  142.4146  171.9557 O.3     1  UNL1       -0.3827
     16 H         140.8736  143.2330  171.9997 H       1  UNL1        0.2107
     17 C         138.5864  139.1064  161.4642 C.2     1  UNL1        0.2445
     18 N         137.2336  139.7516  161.4053 N.am    1  UNL1       -0.3253
     19 O         139.0623  138.2564  160.3235 O.2     1  UNL1       -0.2703
     20 H         136.9213  140.3094  162.1540 H       1  UNL1        0.1453
     21 H         136.6580  139.6173  160.6180 H       1  UNL1        0.1453
     22 N         141.7577  138.3647  161.6710 N.pl3   1  UNL1       -0.2929
     23 H         141.8645  137.3875  161.6183 H       1  UNL1        0.1541
     24 C         142.4317  139.2483  160.6635 C.ar    1  UNL1        0.1321
     25 C         142.5191  138.8191  159.2289 C.ar    1  UNL1        0.0344
     26 C         143.1930  139.7025  158.2214 C.ar    1  UNL1        0.0041
     27 C         143.7797  141.0153  158.6485 C.ar    1  UNL1        0.0162
     28 C         143.6924  141.4445  160.0831 C.ar    1  UNL1        0.0766
     29 N         143.0184  140.5610  161.0906 N.ar    1  UNL1       -0.2335
     30 C         144.2791  142.7574  160.5103 C.3     1  UNL1        0.1188
     31 N         143.5260  143.6422  161.4590 N.3     1  UNL1       -0.2633
     32 C         144.1880  144.1333  162.7123 C.3     1  UNL1        0.1049
     33 C         143.4349  145.0181  163.6609 C.3     1  UNL1        0.1595
     34 O         142.0199  145.4117  163.3564 O.3     1  UNL1       -0.3508
     35 C         141.3580  144.9206  162.1031 C.3     1  UNL1        0.1595
     36 C         142.1110  144.0359  161.1545 C.3     1  UNL1        0.1049
@<TRIPOS>BOND
     1    12    13    1
     2    13    14    1
     3    13    15    1
     4    13     6    1
     5     6     7   ar
     6     7     8   ar
     7     8     9   ar
     8     9     1    1
     9     1     2   ar
    10     2     3   ar
    11     3    17    1
    12    17    18   am
    13    17    19    2
    14     3     4   ar
    15     4    22    1
    16    22    24    1
    17    24    25   ar
    18    25    26   ar
    19    26    27   ar
    20    27    28   ar
    21    28    30    1
    22    30    31    1
    23    31    32    1
    24    32    33    1
    25    33    34    1
    26    34    35    1
    27    35    36    1
    28    28    29   ar
    29     4     5   ar
    30     9    10   ar
    31    10    11   ar
    32    11     6   ar
    33     5     1   ar
    34    29    24   ar
    35    36    31    1
    36    15    16    1
    37    18    20    1
    38    18    21    1
    39    22    23    1
@<TRIPOS>MOLECULE
*****
 36 39 0 0 0
SMALL
GASTEIGER

@<TRIPOS>ATOM
      1 C         141.2006  142.8010  164.7691 C.ar    1  UNL1        0.0308
      2 C         139.8846  142.9213  164.0593 C.ar    1  UNL1        0.0128
      3 C         140.1588  143.0194  162.5879 C.ar    1  UNL1        0.0732
      4 C         141.6443  142.9598  162.3882 C.ar    1  UNL1        0.0841
      5 S         142.2881  142.8248  163.7363 S.2     1  UNL1       -0.0721
      6 C         141.7835  142.4332  169.2160 C.ar    1  UNL1        0.0017
      7 C         142.9290  142.1670  168.2849 C.ar    1  UNL1       -0.0020
      8 C         142.7347  142.2896  166.8026 C.ar    1  UNL1        0.0002
      9 C         141.3949  142.6784  166.2514 C.ar    1  UNL1        0.0060
     10 C         140.2495  142.9446  167.1825 C.ar    1  UNL1        0.0002
     11 C         140.4438  142.8220  168.6648 C.ar    1  UNL1       -0.0020
     12 C         143.2373  143.1194  170.6001 C.3     1  UNL1        0.0339
     13 C         141.9779  142.3106  170.6983 C.3     1  UNL1        0.1071
     14 C         140.7185  141.5017  170.7965 C.3     1  UNL1        0.0339
     15 O         142.1722  142.1880  172.1806 O.3     1  UNL1       -0.3827
     16 H         141.3140  142.2627  172.6265 H       1  UNL1        0.2107
     17 C         139.1284  143.1537  161.5061 C.2     1  UNL1        0.2445
     18 N         137.7127  143.5027  161.8579 N.am    1  UNL1       -0.3253
     19 O         139.5138  142.9389  160.0724 O.2     1  UNL1       -0.2703
     20 H         137.4598  143.6437  162.7989 H       1  UNL1        0.1453
     21 H         137.0364  143.5908  161.1479 H       1  UNL1        0.1453
     22 N         142.3602  143.0239  161.0717 N.pl3   1  UNL1       -0.2929
     23 H         142.6019  143.8964  160.6848 H       1  UNL1        0.1541
     24 C         142.7078  141.7588  160.3446 C.ar    1  UNL1        0.1321
     25 C         143.6154  141.8049  159.1511 C.ar    1  UNL1        0.0344
     26 C         143.9630  140.5398  158.4241 C.ar    1  UNL1        0.0041
     27 C         143.4031  139.2287  158.8904 C.ar    1  UNL1        0.0162
     28 C         142.4956  139.1827  160.0838 C.ar    1  UNL1        0.0766
     29 N         142.1480  140.4478  160.8109 N.ar    1  UNL1       -0.2335
     30 C         141.9357  137.8715  160.5501 C.3     1  UNL1        0.1188
     31 N         140.9953  137.8305  161.7181 N.3     1  UNL1       -0.2633
     32 C         141.5292  137.6180  163.1037 C.3     1  UNL1        0.1049
     33 C         140.5888  137.5770  164.2716 C.3     1  UNL1        0.1595
     34 O         139.1146  137.7484  164.0539 O.3     1  UNL1       -0.3508
     35 C         138.5808  137.9608  162.6683 C.3     1  UNL1        0.1595
     36 C         139.5211  138.0019  161.5004 C.3     1  UNL1        0.1049
@<TRIPOS>BOND
     1    12    13    1
     2    13    14    1
     3    13    15    1
     4    13     6    1
     5     6     7   ar
     6     7     8   ar
     7     8     9   ar
     8     9     1    1
     9     1     2   ar
    10     2     3   ar
    11     3    17    1
    12    17    18   am
    13    17    19    2
    14     3     4   ar
    15     4    22    1
    16    22    24    1
    17    24    25   ar
    18    25    26   ar
    19    26    27   ar
    20    27    28   ar
    21    28    30    1
    22    30    31    1
    23    31    32    1
    24    32    33    1
    25    33    34    1
    26    34    35    1
    27    35    36    1
    28    28    29   ar
    29     4     5   ar
    30     9    10   ar
    31    10    11   ar
    32    11     6   ar
    33     5     1   ar
    34    29    24   ar
    35    36    31    1
    36    15    16    1
    37    18    20    1
    38    18    21    1
    39    22    23    1
@<TRIPOS>MOLECULE
*****
 36 39 0 0 0
SMALL
GASTEIGER

@<TRIPOS>ATOM
      1 C         139.1662  141.1070  164.8313 C.ar    1  UNL1        0.0308
      2 C         138.7440  139.8071  164.2132 C.ar    1  UNL1        0.0128
      3 C         138.3055  140.0838  162.8057 C.ar    1  UNL1        0.0732
      4 C         138.4567  141.5547  162.5538 C.ar    1  UNL1        0.0841
      5 S         138.9886  142.1871  163.8057 S.2     1  UNL1       -0.0721
      6 C         140.6966  141.6680  169.0257 C.ar    1  UNL1        0.0017
      7 C         140.0465  140.3750  168.6312 C.ar    1  UNL1       -0.0020
      8 C         139.5364  140.1881  167.2330 C.ar    1  UNL1        0.0002
      9 C         139.6763  141.2940  166.2294 C.ar    1  UNL1        0.0060
     10 C         140.3264  142.5869  166.6239 C.ar    1  UNL1        0.0002
     11 C         140.8366  142.7739  168.0221 C.ar    1  UNL1       -0.0020
     12 C         141.6476  143.2461  170.0769 C.3     1  UNL1        0.0339
     13 C         141.2068  141.8549  170.4238 C.3     1  UNL1        0.1071
     14 C         140.7660  140.4638  170.7707 C.3     1  UNL1        0.0339
     15 O         141.7169  142.0419  171.8220 O.3     1  UNL1       -0.3827
     16 H         141.1029  141.6277  172.4483 H       1  UNL1        0.2107
     17 C         137.8040  139.0679  161.8227 C.2     1  UNL1        0.2445
     18 N         138.0903  137.6112  162.0376 N.am    1  UNL1       -0.3253
     19 O         137.0161  139.5086  160.6247 O.2     1  UNL1       -0.2703
     20 H         138.6073  137.3220  162.8238 H       1  UNL1        0.1453
     21 H         137.7611  136.9444  161.3924 H       1  UNL1        0.1453
     22 N         138.1328  142.2681  161.2747 N.pl3   1  UNL1       -0.2929
     23 H         137.2630  142.7167  161.1678 H       1  UNL1        0.1541
     24 C         139.1343  142.2979  160.1582 C.ar    1  UNL1        0.1321
     25 C         138.7405  142.8284  158.8116 C.ar    1  UNL1        0.0344
     26 C         139.7419  142.8582  157.6952 C.ar    1  UNL1        0.0041
     27 C         141.1370  142.3577  157.9255 C.ar    1  UNL1        0.0162
     28 C         141.5307  141.8272  159.2722 C.ar    1  UNL1        0.0766
     29 N         140.5293  141.7974  160.3886 N.ar    1  UNL1       -0.2335
     30 C         142.9259  141.3266  159.5025 C.3     1  UNL1        0.1188
     31 N         143.6587  141.6989  160.7573 N.3     1  UNL1       -0.2633
     32 C         143.7811  143.1402  161.1548 C.3     1  UNL1        0.1049
     33 C         144.5139  143.5124  162.4096 C.3     1  UNL1        0.1595
     34 O         145.1242  142.4435  163.2668 O.3     1  UNL1       -0.3508
     35 C         145.0018  141.0023  162.8693 C.3     1  UNL1        0.1595
     36 C         144.2690  140.6301  161.6146 C.3     1  UNL1        0.1049
@<TRIPOS>BOND
     1    12    13    1
     2    13    14    1
     3    13    15    1
     4    13     6    1
     5     6     7   ar
     6     7     8   ar
     7     8     9   ar
     8     9     1    1
     9     1     2   ar
    10     2     3   ar
    11     3    17    1
    12    17    18   am
    13    17    19    2
    14     3     4   ar
    15     4    22    1
    16    22    24    1
    17    24    25   ar
    18    25    26   ar
    19    26    27   ar
    20    27    28   ar
    21    28    30    1
    22    30    31    1
    23    31    32    1
    24    32    33    1
    25    33    34    1
    26    34    35    1
    27    35    36    1
    28    28    29   ar
    29     4     5   ar
    30     9    10   ar
    31    10    11   ar
    32    11     6   ar
    33     5     1   ar
    34    29    24   ar
    35    36    31    1
    36    15    16    1
    37    18    20    1
    38    18    21    1
    39    22    23    1
@<TRIPOS>MOLECULE
*****
 36 39 0 0 0
SMALL
GASTEIGER

@<TRIPOS>ATOM
      1 C         139.5948  142.7361  164.2648 C.ar    1  UNL1        0.0308
      2 C         140.2948  143.9787  163.8000 C.ar    1  UNL1        0.0128
      3 C         139.8079  144.2952  162.4170 C.ar    1  UNL1        0.0732
      4 C         138.8070  143.2483  162.0270 C.ar    1  UNL1        0.0841
      5 S         138.6754  142.2847  163.1690 S.2     1  UNL1       -0.0721
      6 C         140.1551  140.7171  168.2472 C.ar    1  UNL1        0.0017
      7 C         139.5839  139.9504  167.0914 C.ar    1  UNL1       -0.0020
      8 C         139.3972  140.6234  165.7639 C.ar    1  UNL1        0.0002
      9 C         139.7816  142.0631  165.5923 C.ar    1  UNL1        0.0060
     10 C         140.3527  142.8298  166.7481 C.ar    1  UNL1        0.0002
     11 C         140.5394  142.1567  168.0756 C.ar    1  UNL1       -0.0020
     12 C         141.7579  139.7126  169.2075 C.3     1  UNL1        0.0339
     13 C         140.3418  140.0440  169.5747 C.3     1  UNL1        0.1071
     14 C         138.9257  140.3754  169.9419 C.3     1  UNL1        0.0339
     15 O         140.5285  139.3710  170.9022 O.3     1  UNL1       -0.3827
     16 H         140.0752  139.8824  171.5906 H       1  UNL1        0.2107
     17 C         140.2452  145.4551  161.5723 C.2     1  UNL1        0.2445
     18 N         141.6094  145.4565  160.9487 N.am    1  UNL1       -0.3253
     19 O         139.3183  146.6136  161.3513 O.2     1  UNL1       -0.2703
     20 H         142.2177  144.6962  161.0937 H       1  UNL1        0.1453
     21 H         141.8964  146.2178  160.3943 H       1  UNL1        0.1453
     22 N         138.0676  143.1774  160.7239 N.pl3   1  UNL1       -0.2929
     23 H         137.1357  143.4900  160.6690 H       1  UNL1        0.1541
     24 C         138.7481  142.6301  159.5042 C.ar    1  UNL1        0.1321
     25 C         139.4750  143.5542  158.5727 C.ar    1  UNL1        0.0344
     26 C         140.1554  143.0070  157.3532 C.ar    1  UNL1        0.0041
     27 C         140.1090  141.5356  157.0650 C.ar    1  UNL1        0.0162
     28 C         139.3821  140.6116  157.9965 C.ar    1  UNL1        0.0766
     29 N         138.7017  141.1588  159.2162 N.ar    1  UNL1       -0.2335
     30 C         139.3357  139.1401  157.7084 C.3     1  UNL1        0.1188
     31 N         140.5966  138.3285  157.7457 N.3     1  UNL1       -0.2633
     32 C         141.5467  138.4713  158.8977 C.3     1  UNL1        0.1049
     33 C         142.8076  137.6596  158.9349 C.3     1  UNL1        0.1595
     34 O         143.1183  136.7051  157.8203 O.3     1  UNL1       -0.3508
     35 C         142.1682  136.5623  156.6685 C.3     1  UNL1        0.1595
     36 C         140.9074  137.3739  156.6312 C.3     1  UNL1        0.1049
@<TRIPOS>BOND
     1    12    13    1
     2    13    14    1
     3    13    15    1
     4    13     6    1
     5     6     7   ar
     6     7     8   ar
     7     8     9   ar
     8     9     1    1
     9     1     2   ar
    10     2     3   ar
    11     3    17    1
    12    17    18   am
    13    17    19    2
    14     3     4   ar
    15     4    22    1
    16    22    24    1
    17    24    25   ar
    18    25    26   ar
    19    26    27   ar
    20    27    28   ar
    21    28    30    1
    22    30    31    1
    23    31    32    1
    24    32    33    1
    25    33    34    1
    26    34    35    1
    27    35    36    1
    28    28    29   ar
    29     4     5   ar
    30     9    10   ar
    31    10    11   ar
    32    11     6   ar
    33     5     1   ar
    34    29    24   ar
    35    36    31    1
    36    15    16    1
    37    18    20    1
    38    18    21    1
    39    22    23    1
@<TRIPOS>MOLECULE
*****
 36 39 0 0 0
SMALL
GASTEIGER

@<TRIPOS>ATOM
      1 C         141.3108  142.9290  165.4326 C.ar    1  UNL1        0.0308
      2 C         142.6726  143.0472  164.8148 C.ar    1  UNL1        0.0128
      3 C         142.5537  143.9074  163.5917 C.ar    1  UNL1        0.0732
      4 C         141.1184  144.3209  163.4536 C.ar    1  UNL1        0.0841
      5 S         140.3503  143.7162  164.5913 S.2     1  UNL1       -0.0721
      6 C         140.2869  140.6186  169.1560 C.ar    1  UNL1        0.0017
      7 C         140.2297  142.1175  169.1638 C.ar    1  UNL1       -0.0020
      8 C         140.5710  142.8876  167.9227 C.ar    1  UNL1        0.0002
      9 C         140.9695  142.1589  166.6737 C.ar    1  UNL1        0.0060
     10 C         141.0267  140.6600  166.6658 C.ar    1  UNL1        0.0002
     11 C         140.6854  139.8899  167.9070 C.ar    1  UNL1       -0.0020
     12 C         138.5146  140.2805  170.2716 C.3     1  UNL1        0.0339
     13 C         139.9456  139.8485  170.3971 C.3     1  UNL1        0.1071
     14 C         141.3765  139.4166  170.5226 C.3     1  UNL1        0.0339
     15 O         139.6042  139.0784  171.6382 O.3     1  UNL1       -0.3827
     16 H         140.0948  138.2416  171.6447 H       1  UNL1        0.2107
     17 C         143.6735  144.2874  162.6688 C.2     1  UNL1        0.2445
     18 N         144.2245  145.6823  162.6929 N.am    1  UNL1       -0.3253
     19 O         144.2422  143.2725  161.7219 O.2     1  UNL1       -0.2703
     20 H         143.8513  146.3484  163.3144 H       1  UNL1        0.1453
     21 H         144.9595  145.9317  162.0872 H       1  UNL1        0.1453
     22 N         140.5509  145.1869  162.3683 N.pl3   1  UNL1       -0.2929
     23 H         140.4138  146.1488  162.5272 H       1  UNL1        0.1541
     24 C         140.1923  144.5875  161.0408 C.ar    1  UNL1        0.1321
     25 C         140.6174  145.2657  159.7722 C.ar    1  UNL1        0.0344
     26 C         140.2588  144.6663  158.4449 C.ar    1  UNL1        0.0041
     27 C         139.4751  143.3887  158.3860 C.ar    1  UNL1        0.0162
     28 C         139.0500  142.7105  159.6546 C.ar    1  UNL1        0.0766
     29 N         139.4087  143.3099  160.9820 N.ar    1  UNL1       -0.2335
     30 C         138.2663  141.4328  159.5957 C.3     1  UNL1        0.1188
     31 N         138.8067  140.1911  160.2409 N.3     1  UNL1       -0.2633
     32 C         137.9297  139.3701  161.1393 C.3     1  UNL1        0.1049
     33 C         138.4702  138.1285  161.7844 C.3     1  UNL1        0.1595
     34 O         139.8875  137.7078  161.5312 O.3     1  UNL1       -0.3508
     35 C         140.7644  138.5287  160.6328 C.3     1  UNL1        0.1595
     36 C         140.2241  139.7703  159.9877 C.3     1  UNL1        0.1049
@<TRIPOS>BOND
     1    12    13    1
     2    13    14    1
     3    13    15    1
     4    13     6    1
     5     6     7   ar
     6     7     8   ar
     7     8     9   ar
     8     9     1    1
     9     1     2   ar
    10     2     3   ar
    11     3    17    1
    12    17    18   am
    13    17    19    2
    14     3     4   ar
    15     4    22    1
    16    22    24    1
    17    24    25   ar
    18    25    26   ar
    19    26    27   ar
    20    27    28   ar
    21    28    30    1
    22    30    31    1
    23    31    32    1
    24    32    33    1
    25    33    34    1
    26    34    35    1
    27    35    36    1
    28    28    29   ar
    29     4     5   ar
    30     9    10   ar
    31    10    11   ar
    32    11     6   ar
    33     5     1   ar
    34    29    24   ar
    35    36    31    1
    36    15    16    1
    37    18    20    1
    38    18    21    1
    39    22    23    1
