@<TRIPOS>MOLECULE
*****
 30 34 0 0 0
SMALL
GASTEIGER

@<TRIPOS>ATOM
      1 C         140.1934  140.7530  165.0316 C.3     1  UNL1        0.1686
      2 C         141.3191  140.0338  164.3494 C.3     1  UNL1        0.0595
      3 C         141.0802  138.6942  163.7183 C.3     1  UNL1        0.0614
      4 C         140.4086  137.4377  163.2488 C.3     1  UNL1        0.0175
      5 C         138.9707  137.4948  163.6722 C.3     1  UNL1        0.0175
      6 C         138.7536  138.7864  164.4032 C.3     1  UNL1        0.0614
      7 C         138.8287  140.1325  165.0826 C.3     1  UNL1        0.0595
      8 N         140.0574  139.5277  164.4317 N.3     1  UNL1       -0.2713
      9 O         140.4323  142.0926  165.6627 O.3     1  UNL1       -0.4791
     10 C         141.1239  142.2853  169.5658 C.ar    1  UNL1        0.0561
     11 C         142.6211  142.3740  169.5843 C.ar    1  UNL1        0.0047
     12 C         143.3888  142.3690  168.2956 C.ar    1  UNL1        0.0033
     13 C         142.6592  142.2751  166.9884 C.ar    1  UNL1        0.0369
     14 C         141.1619  142.1864  166.9699 C.ar    1  UNL1        0.1385
     15 C         140.3942  142.1915  168.2586 C.ar    1  UNL1        0.0414
     16 N         139.3172  143.3429  171.1044 N.am    1  UNL1       -0.3253
     17 C         140.3563  142.2904  170.8545 C.2     1  UNL1        0.2428
     18 O         140.6278  141.2429  171.8933 O.2     1  UNL1       -0.2704
     19 H         138.8134  143.3462  171.9503 H       1  UNL1        0.1453
     20 H         139.1389  144.0304  170.4226 H       1  UNL1        0.1453
     21 C         140.2963  140.8673  165.0628 C.3     1  UNL1        0.0992
     22 C         139.8365  142.1157  164.3697 C.ar    1  UNL1       -0.0029
     23 C         138.4963  142.7046  164.6963 C.ar    1  UNL1        0.0004
     24 C         138.0365  143.9529  164.0033 C.ar    1  UNL1        0.0399
     25 C         138.9171  144.6123  162.9835 C.ar    1  UNL1        0.1764
     26 C         140.2574  144.0233  162.6569 C.ar    1  UNL1        0.1762
     27 C         140.7172  142.7750  163.3499 C.ar    1  UNL1        0.0373
     28 O         140.9027  144.8887  161.6154 O.3     1  UNL1       -0.4346
     29 C         139.9612  146.0126  161.2984 C.3     1  UNL1        0.4294
     30 O         138.7340  145.8417  162.1440 O.3     1  UNL1       -0.4346
@<TRIPOS>BOND
     1    16    17   am
     2    17    18    2
     3    17    10    1
     4    10    11   ar
     5    11    12   ar
     6    12    13   ar
     7    13    14   ar
     8    14     9    1
     9     1     9    1
    10     1     2    1
    11     3     2    1
    12     3     4    1
    13     4     5    1
    14     6     5    1
    15     6     7    1
    16     6     8    1
    17     8    21    1
    18    21    22    1
    19    22    23   ar
    20    23    24   ar
    21    24    25   ar
    22    25    26   ar
    23    26    27   ar
    24    26    28    1
    25    28    29    1
    26    29    30    1
    27    14    15   ar
    28    15    10   ar
    29     7     1    1
    30    27    22   ar
    31     8     3    1
    32    30    25    1
    33    16    19    1
    34    16    20    1
@<TRIPOS>MOLECULE
*****
 30 34 0 0 0
SMALL
GASTEIGER

@<TRIPOS>ATOM
      1 C         140.7180  142.0333  167.2591 C.3     1  UNL1        0.1686
      2 C         140.3139  142.6555  168.5628 C.3     1  UNL1        0.0595
      3 C         141.3496  142.9453  169.6084 C.3     1  UNL1        0.0614
      4 C         142.6637  143.0506  170.3243 C.3     1  UNL1        0.0175
      5 C         143.7282  142.4995  169.4225 C.3     1  UNL1        0.0175
      6 C         143.0721  142.0536  168.1494 C.3     1  UNL1        0.0614
      7 C         142.1577  141.7010  167.0010 C.3     1  UNL1        0.0595
      8 N         141.6021  142.3291  168.2643 N.3     1  UNL1       -0.2713
      9 O         139.6823  141.7435  166.2135 O.3     1  UNL1       -0.4791
     10 C         139.2264  138.2680  164.3526 C.ar    1  UNL1        0.0561
     11 C         138.4535  137.4956  165.3802 C.ar    1  UNL1        0.0047
     12 C         138.0901  138.1391  166.6856 C.ar    1  UNL1        0.0033
     13 C         138.4997  139.5551  166.9633 C.ar    1  UNL1        0.0369
     14 C         139.2727  140.3275  165.9357 C.ar    1  UNL1        0.1385
     15 C         139.6360  139.6840  164.6304 C.ar    1  UNL1        0.0414
     16 N         138.6247  137.6597  161.8995 N.am    1  UNL1       -0.3253
     17 C         139.5897  137.6244  163.0473 C.2     1  UNL1        0.2428
     18 O         140.9179  136.9455  162.8900 O.2     1  UNL1       -0.2704
     19 H         138.8632  137.2373  161.0428 H       1  UNL1        0.1453
     20 H         137.7529  138.1053  162.0028 H       1  UNL1        0.1453
     21 C         140.5664  142.0393  167.2187 C.3     1  UNL1        0.0992
     22 C         140.4070  142.9602  166.0454 C.ar    1  UNL1       -0.0029
     23 C         139.2744  143.9430  166.0117 C.ar    1  UNL1        0.0004
     24 C         139.1151  144.8639  164.8385 C.ar    1  UNL1        0.0399
     25 C         140.0884  144.8019  163.6988 C.ar    1  UNL1        0.1764
     26 C         141.2210  143.8191  163.7324 C.ar    1  UNL1        0.1762
     27 C         141.3804  142.8982  164.9057 C.ar    1  UNL1        0.0373
     28 O         142.0180  143.9870  162.4728 O.3     1  UNL1       -0.4346
     29 C         141.3779  145.0736  161.6607 C.3     1  UNL1        0.4294
     30 O         140.1853  145.5773  162.4184 O.3     1  UNL1       -0.4346
@<TRIPOS>BOND
     1    16    17   am
     2    17    18    2
     3    17    10    1
     4    10    11   ar
     5    11    12   ar
     6    12    13   ar
     7    13    14   ar
     8    14     9    1
     9     1     9    1
    10     1     2    1
    11     3     2    1
    12     3     4    1
    13     4     5    1
    14     6     5    1
    15     6     7    1
    16     6     8    1
    17     8    21    1
    18    21    22    1
    19    22    23   ar
    20    23    24   ar
    21    24    25   ar
    22    25    26   ar
    23    26    27   ar
    24    26    28    1
    25    28    29    1
    26    29    30    1
    27    14    15   ar
    28    15    10   ar
    29     7     1    1
    30    27    22   ar
    31     8     3    1
    32    30    25    1
    33    16    19    1
    34    16    20    1
@<TRIPOS>MOLECULE
*****
 30 34 0 0 0
SMALL
GASTEIGER

@<TRIPOS>ATOM
      1 C         141.9363  140.4806  165.3342 C.3     1  UNL1        0.1686
      2 C         142.6462  141.6944  164.8120 C.3     1  UNL1        0.0595
      3 C         144.0747  141.5937  164.3658 C.3     1  UNL1        0.0614
      4 C         145.4350  141.0469  164.0481 C.3     1  UNL1        0.0175
      5 C         145.4399  139.5872  164.3936 C.3     1  UNL1        0.0175
      6 C         144.0828  139.2319  164.9247 C.3     1  UNL1        0.0614
      7 C         142.6549  139.1662  165.4103 C.3     1  UNL1        0.0595
      8 N         143.2391  140.4720  164.9075 N.3     1  UNL1       -0.2713
      9 O         140.5077  140.5813  165.7804 O.3     1  UNL1       -0.4791
     10 C         140.4073  142.3862  169.3134 C.ar    1  UNL1        0.0561
     11 C         139.5528  141.4326  170.0947 C.ar    1  UNL1        0.0047
     12 C         139.0165  140.1952  169.4379 C.ar    1  UNL1        0.0033
     13 C         139.3349  139.9114  167.9998 C.ar    1  UNL1        0.0369
     14 C         140.1894  140.8651  167.2185 C.ar    1  UNL1        0.1385
     15 C         140.7256  142.1025  167.8753 C.ar    1  UNL1        0.0414
     16 N         142.3677  143.6669  170.4388 N.am    1  UNL1       -0.3253
     17 C         140.9434  143.6236  169.9702 C.2     1  UNL1        0.2428
     18 O         140.0553  144.8176  170.1585 O.2     1  UNL1       -0.2704
     19 H         142.7196  144.4790  170.8699 H       1  UNL1        0.1453
     20 H         142.9506  142.8832  170.3152 H       1  UNL1        0.1453
     21 C         141.8106  140.5727  165.3537 C.3     1  UNL1        0.0992
     22 C         140.7165  140.0009  164.5014 C.ar    1  UNL1       -0.0029
     23 C         140.1766  138.6322  164.7927 C.ar    1  UNL1        0.0004
     24 C         139.0826  138.0605  163.9405 C.ar    1  UNL1        0.0399
     25 C         138.5286  138.8575  162.7969 C.ar    1  UNL1        0.1764
     26 C         139.0685  140.2263  162.5056 C.ar    1  UNL1        0.1762
     27 C         140.1625  140.7981  163.3578 C.ar    1  UNL1        0.0373
     28 O         138.3305  140.7731  161.3197 O.3     1  UNL1       -0.4346
     29 C         137.3344  139.7422  160.8781 C.3     1  UNL1        0.4294
     30 O         137.4568  138.5583  161.7910 O.3     1  UNL1       -0.4346
@<TRIPOS>BOND
     1    16    17   am
     2    17    18    2
     3    17    10    1
     4    10    11   ar
     5    11    12   ar
     6    12    13   ar
     7    13    14   ar
     8    14     9    1
     9     1     9    1
    10     1     2    1
    11     3     2    1
    12     3     4    1
    13     4     5    1
    14     6     5    1
    15     6     7    1
    16     6     8    1
    17     8    21    1
    18    21    22    1
    19    22    23   ar
    20    23    24   ar
    21    24    25   ar
    22    25    26   ar
    23    26    27   ar
    24    26    28    1
    25    28    29    1
    26    29    30    1
    27    14    15   ar
    28    15    10   ar
    29     7     1    1
    30    27    22   ar
    31     8     3    1
    32    30    25    1
    33    16    19    1
    34    16    20    1
@<TRIPOS>MOLECULE
*****
 30 34 0 0 0
SMALL
GASTEIGER

@<TRIPOS>ATOM
      1 C         142.3905  141.7074  165.6632 C.3     1  UNL1        0.1686
      2 C         143.3312  142.7463  165.1287 C.3     1  UNL1        0.0595
      3 C         144.5943  142.3290  164.4355 C.3     1  UNL1        0.0614
      4 C         145.6853  141.4868  163.8434 C.3     1  UNL1        0.0175
      5 C         145.3283  140.0461  164.0605 C.3     1  UNL1        0.0175
      6 C         144.0167  139.9979  164.7868 C.3     1  UNL1        0.0614
      7 C         142.7130  140.2511  165.5046 C.3     1  UNL1        0.0595
      8 N         143.5631  141.4088  165.0185 N.3     1  UNL1       -0.2713
      9 O         141.1274  142.1247  166.3563 O.3     1  UNL1       -0.4791
     10 C         138.3481  142.8071  163.6070 C.ar    1  UNL1        0.0561
     11 C         137.8525  144.1570  164.0339 C.ar    1  UNL1        0.0047
     12 C         138.4485  144.8295  165.2350 C.ar    1  UNL1        0.0033
     13 C         139.5402  144.1520  166.0091 C.ar    1  UNL1        0.0369
     14 C         140.0358  142.8022  165.5822 C.ar    1  UNL1        0.1385
     15 C         139.4397  142.1297  164.3811 C.ar    1  UNL1        0.0414
     16 N         137.2248  140.7346  162.5147 N.am    1  UNL1       -0.3253
     17 C         137.7520  142.1347  162.4059 C.2     1  UNL1        0.2428
     18 O         137.6832  142.8624  161.0961 O.2     1  UNL1       -0.2704
     19 H         136.8336  140.2933  161.7263 H       1  UNL1        0.1453
     20 H         137.2700  140.2570  163.3744 H       1  UNL1        0.1453
     21 C         142.3000  141.8261  165.7117 C.3     1  UNL1        0.0992
     22 C         142.1595  141.6363  167.1931 C.ar    1  UNL1       -0.0029
     23 C         143.0638  142.3766  168.1331 C.ar    1  UNL1        0.0004
     24 C         142.9233  142.1868  169.6144 C.ar    1  UNL1        0.0399
     25 C         141.8784  141.2566  170.1556 C.ar    1  UNL1        0.1764
     26 C         140.9740  140.5162  169.2155 C.ar    1  UNL1        0.1762
     27 C         141.1145  140.7060  167.7342 C.ar    1  UNL1        0.0373
     28 O         140.0436  139.6724  170.0354 O.3     1  UNL1       -0.4346
     29 C         140.3730  139.8913  171.4823 C.3     1  UNL1        0.4294
     30 O         141.5070  140.8704  171.5566 O.3     1  UNL1       -0.4346
@<TRIPOS>BOND
     1    16    17   am
     2    17    18    2
     3    17    10    1
     4    10    11   ar
     5    11    12   ar
     6    12    13   ar
     7    13    14   ar
     8    14     9    1
     9     1     9    1
    10     1     2    1
    11     3     2    1
    12     3     4    1
    13     4     5    1
    14     6     5    1
    15     6     7    1
    16     6     8    1
    17     8    21    1
    18    21    22    1
    19    22    23   ar
    20    23    24   ar
    21    24    25   ar
    22    25    26   ar
    23    26    27   ar
    24    26    28    1
    25    28    29    1
    26    29    30    1
    27    14    15   ar
    28    15    10   ar
    29     7     1    1
    30    27    22   ar
    31     8     3    1
    32    30    25    1
    33    16    19    1
    34    16    20    1
@<TRIPOS>MOLECULE
*****
 30 34 0 0 0
SMALL
GASTEIGER

@<TRIPOS>ATOM
      1 C         141.9251  141.8313  165.0764 C.3     1  UNL1        0.1686
      2 C         143.3699  142.2014  164.9170 C.3     1  UNL1        0.0595
      3 C         143.7443  143.5704  164.4313 C.3     1  UNL1        0.0614
      4 C         143.6515  144.9845  163.9396 C.3     1  UNL1        0.0175
      5 C         142.1992  145.3474  163.8432 C.3     1  UNL1        0.0175
      6 C         141.3945  144.1576  164.2754 C.3     1  UNL1        0.0614
      7 C         140.8546  142.8300  164.7501 C.3     1  UNL1        0.0595
      8 N         142.3494  143.0593  164.6388 N.3     1  UNL1       -0.2713
      9 O         141.5508  140.4623  165.5621 O.3     1  UNL1       -0.4791
     10 C         140.2834  140.3048  169.3196 C.ar    1  UNL1        0.0561
     11 C         141.4307  139.5959  169.9762 C.ar    1  UNL1        0.0047
     12 C         142.6181  139.1758  169.1615 C.ar    1  UNL1        0.0033
     13 C         142.6581  139.4646  167.6901 C.ar    1  UNL1        0.0369
     14 C         141.5108  140.1735  167.0335 C.ar    1  UNL1        0.1385
     15 C         140.3234  140.5937  167.8482 C.ar    1  UNL1        0.0414
     16 N         137.9713  139.7617  170.3727 N.am    1  UNL1       -0.3253
     17 C         139.0961  140.7250  170.1344 C.2     1  UNL1        0.2428
     18 O         139.0338  142.1083  170.7108 O.2     1  UNL1       -0.2704
     19 H         137.1920  140.0374  170.9075 H       1  UNL1        0.1453
     20 H         138.0123  138.8537  169.9944 H       1  UNL1        0.1453
     21 C         141.9750  141.6904  165.1246 C.3     1  UNL1        0.0992
     22 C         141.3790  140.6944  164.1743 C.ar    1  UNL1       -0.0029
     23 C         142.2710  139.7716  163.3982 C.ar    1  UNL1        0.0004
     24 C         141.6749  138.7756  162.4480 C.ar    1  UNL1        0.0399
     25 C         140.1869  138.7026  162.2740 C.ar    1  UNL1        0.1764
     26 C         139.2948  139.6255  163.0502 C.ar    1  UNL1        0.1762
     27 C         139.8908  140.6214  164.0004 C.ar    1  UNL1        0.0373
     28 O         137.8748  139.3237  162.6729 O.3     1  UNL1       -0.4346
     29 C         137.8892  138.2143  161.6634 C.3     1  UNL1        0.4294
     30 O         139.3181  137.8304  161.4169 O.3     1  UNL1       -0.4346
@<TRIPOS>BOND
     1    16    17   am
     2    17    18    2
     3    17    10    1
     4    10    11   ar
     5    11    12   ar
     6    12    13   ar
     7    13    14   ar
     8    14     9    1
     9     1     9    1
    10     1     2    1
    11     3     2    1
    12     3     4    1
    13     4     5    1
    14     6     5    1
    15     6     7    1
    16     6     8    1
    17     8    21    1
    18    21    22    1
    19    22    23   ar
    20    23    24   ar
    21    24    25   ar
    22    25    26   ar
    23    26    27   ar
    24    26    28    1
    25    28    29    1
    26    29    30    1
    27    14    15   ar
    28    15    10   ar
    29     7     1    1
    30    27    22   ar
    31     8     3    1
    32    30    25    1
    33    16    19    1
    34    16    20    1
@<TRIPOS>MOLECULE
*****
 30 34 0 0 0
SMALL
GASTEIGER

@<TRIPOS>ATOM
      1 C         140.2017  140.9711  165.5098 C.3     1  UNL1        0.1686
      2 C         139.0861  140.1969  166.1470 C.3     1  UNL1        0.0595
      3 C         138.8222  138.7805  165.7295 C.3     1  UNL1        0.0614
      4 C         138.9221  137.4570  165.0305 C.3     1  UNL1        0.0175
      5 C         140.0580  137.5334  164.0537 C.3     1  UNL1        0.0175
      6 C         140.6599  138.9040  164.1489 C.3     1  UNL1        0.0614
      7 C         141.0533  140.3291  164.4551 C.3     1  UNL1        0.0595
      8 N         139.8962  139.6748  165.1846 N.3     1  UNL1       -0.2713
      9 O         140.4656  142.3875  165.9273 O.3     1  UNL1       -0.4791
     10 C         142.4487  142.4500  169.3643 C.ar    1  UNL1        0.0561
     11 C         141.5454  143.3105  170.1971 C.ar    1  UNL1        0.0047
     12 C         140.2822  143.8634  169.6067 C.ar    1  UNL1        0.0033
     13 C         139.9222  143.5557  168.1834 C.ar    1  UNL1        0.0369
     14 C         140.8255  142.6952  167.3506 C.ar    1  UNL1        0.1385
     15 C         142.0888  142.1423  167.9410 C.ar    1  UNL1        0.0414
     16 N         144.8899  142.7973  170.1827 N.am    1  UNL1       -0.3253
     17 C         143.7119  141.8971  169.9548 C.2     1  UNL1        0.2428
     18 O         143.7970  140.4441  170.3174 O.2     1  UNL1       -0.2704
     19 H         145.7190  142.4344  170.5703 H       1  UNL1        0.1453
     20 H         144.8340  143.7509  169.9447 H       1  UNL1        0.1453
     21 C         140.1601  141.0911  165.6021 C.3     1  UNL1        0.0992
     22 C         139.7064  142.2263  164.7327 C.ar    1  UNL1       -0.0029
     23 C         138.2472  142.5590  164.6347 C.ar    1  UNL1        0.0004
     24 C         137.7935  143.6941  163.7653 C.ar    1  UNL1        0.0399
     25 C         138.7991  144.4964  162.9940 C.ar    1  UNL1        0.1764
     26 C         140.2585  144.1637  163.0921 C.ar    1  UNL1        0.1762
     27 C         140.7122  143.0286  163.9614 C.ar    1  UNL1        0.0373
     28 O         141.0126  145.1246  162.2215 O.3     1  UNL1       -0.4346
     29 C         140.0193  146.0513  161.5854 C.3     1  UNL1        0.4294
     30 O         138.6513  145.6631  162.0629 O.3     1  UNL1       -0.4346
@<TRIPOS>BOND
     1    16    17   am
     2    17    18    2
     3    17    10    1
     4    10    11   ar
     5    11    12   ar
     6    12    13   ar
     7    13    14   ar
     8    14     9    1
     9     1     9    1
    10     1     2    1
    11     3     2    1
    12     3     4    1
    13     4     5    1
    14     6     5    1
    15     6     7    1
    16     6     8    1
    17     8    21    1
    18    21    22    1
    19    22    23   ar
    20    23    24   ar
    21    24    25   ar
    22    25    26   ar
    23    26    27   ar
    24    26    28    1
    25    28    29    1
    26    29    30    1
    27    14    15   ar
    28    15    10   ar
    29     7     1    1
    30    27    22   ar
    31     8     3    1
    32    30    25    1
    33    16    19    1
    34    16    20    1
@<TRIPOS>MOLECULE
*****
 30 34 0 0 0
SMALL
GASTEIGER

@<TRIPOS>ATOM
      1 C         140.8603  141.9436  167.3415 C.3     1  UNL1        0.1686
      2 C         142.1092  141.1350  167.5319 C.3     1  UNL1        0.0595
      3 C         142.9874  141.3804  168.7230 C.3     1  UNL1        0.0614
      4 C         143.5336  141.9463  170.0004 C.3     1  UNL1        0.0175
      5 C         142.5984  143.0218  170.4681 C.3     1  UNL1        0.0175
      6 C         141.4742  143.1206  169.4799 C.3     1  UNL1        0.0614
      7 C         140.4895  142.9977  168.3421 C.3     1  UNL1        0.0595
      8 N         141.7147  142.1062  168.4014 N.3     1  UNL1       -0.2713
      9 O         139.9822  141.6981  166.1504 O.3     1  UNL1       -0.4791
     10 C         139.3346  138.2703  164.2583 C.ar    1  UNL1        0.0561
     11 C         138.4971  137.5430  165.2681 C.ar    1  UNL1        0.0047
     12 C         138.1546  138.2008  166.5720 C.ar    1  UNL1        0.0033
     13 C         138.6496  139.5858  166.8661 C.ar    1  UNL1        0.0369
     14 C         139.4871  140.3131  165.8563 C.ar    1  UNL1        0.1385
     15 C         139.8296  139.6553  164.5524 C.ar    1  UNL1        0.0414
     16 N         138.7037  137.6561  161.8140 N.am    1  UNL1       -0.3253
     17 C         139.6770  137.6125  162.9545 C.2     1  UNL1        0.2428
     18 O         140.9928  136.9111  162.7912 O.2     1  UNL1       -0.2704
     19 H         138.9285  137.2244  160.9582 H       1  UNL1        0.1453
     20 H         137.8401  138.1164  161.9212 H       1  UNL1        0.1453
     21 C         140.8366  141.8608  167.2103 C.3     1  UNL1        0.0992
     22 C         140.9728  142.7199  165.9882 C.ar    1  UNL1       -0.0029
     23 C         142.2966  142.8282  165.2913 C.ar    1  UNL1        0.0004
     24 C         142.4328  143.6873  164.0693 C.ar    1  UNL1        0.0399
     25 C         141.2452  144.4382  163.5442 C.ar    1  UNL1        0.1764
     26 C         139.9213  144.3300  164.2411 C.ar    1  UNL1        0.1762
     27 C         139.7851  143.4709  165.4631 C.ar    1  UNL1        0.0373
     28 O         138.9349  145.1806  163.4972 O.3     1  UNL1       -0.4346
     29 C         139.6491  145.8145  162.3405 C.3     1  UNL1        0.4294
     30 O         141.0770  145.3557  162.3695 O.3     1  UNL1       -0.4346
@<TRIPOS>BOND
     1    16    17   am
     2    17    18    2
     3    17    10    1
     4    10    11   ar
     5    11    12   ar
     6    12    13   ar
     7    13    14   ar
     8    14     9    1
     9     1     9    1
    10     1     2    1
    11     3     2    1
    12     3     4    1
    13     4     5    1
    14     6     5    1
    15     6     7    1
    16     6     8    1
    17     8    21    1
    18    21    22    1
    19    22    23   ar
    20    23    24   ar
    21    24    25   ar
    22    25    26   ar
    23    26    27   ar
    24    26    28    1
    25    28    29    1
    26    29    30    1
    27    14    15   ar
    28    15    10   ar
    29     7     1    1
    30    27    22   ar
    31     8     3    1
    32    30    25    1
    33    16    19    1
    34    16    20    1
@<TRIPOS>MOLECULE
*****
 30 34 0 0 0
SMALL
GASTEIGER

@<TRIPOS>ATOM
      1 C         141.0101  140.6350  164.6176 C.3     1  UNL1        0.1686
      2 C         140.5594  139.3847  163.9222 C.3     1  UNL1        0.0595
      3 C         141.5491  138.5486  163.1662 C.3     1  UNL1        0.0614
      4 C         142.8278  138.0505  162.5605 C.3     1  UNL1        0.0175
      5 C         143.9196  139.0117  162.9270 C.3     1  UNL1        0.0175
      6 C         143.3157  140.1038  163.7592 C.3     1  UNL1        0.0614
      7 C         142.4504  141.0493  164.5569 C.3     1  UNL1        0.0595
      8 N         141.8507  139.8176  163.9070 N.3     1  UNL1       -0.2713
      9 O         140.0204  141.4711  165.3736 O.3     1  UNL1       -0.4791
     10 C         140.4785  142.5257  169.1719 C.ar    1  UNL1        0.0561
     11 C         139.9186  141.3218  169.8698 C.ar    1  UNL1        0.0047
     12 C         139.3926  140.1676  169.0690 C.ar    1  UNL1        0.0033
     13 C         139.4266  140.2174  167.5702 C.ar    1  UNL1        0.0369
     14 C         139.9864  141.4213  166.8723 C.ar    1  UNL1        0.1385
     15 C         140.5124  142.5755  167.6731 C.ar    1  UNL1        0.0414
     16 N         142.4136  143.6561  170.4864 N.am    1  UNL1       -0.3253
     17 C         141.0044  143.6798  169.9728 C.2     1  UNL1        0.2428
     18 O         140.1212  144.8577  170.2600 O.2     1  UNL1       -0.2704
     19 H         142.7588  144.4136  171.0120 H       1  UNL1        0.1453
     20 H         142.9932  142.8830  170.2978 H       1  UNL1        0.1453
     21 C         140.8610  140.6536  164.6630 C.3     1  UNL1        0.0992
     22 C         140.2011  141.8230  163.9941 C.ar    1  UNL1       -0.0029
     23 C         138.7335  141.7814  163.6873 C.ar    1  UNL1        0.0004
     24 C         138.0737  142.9507  163.0184 C.ar    1  UNL1        0.0399
     25 C         138.8815  144.1616  162.6565 C.ar    1  UNL1        0.1764
     26 C         140.3492  144.2033  162.9634 C.ar    1  UNL1        0.1762
     27 C         141.0091  143.0340  163.6322 C.ar    1  UNL1        0.0373
     28 O         140.8841  145.5231  162.4922 O.3     1  UNL1       -0.4346
     29 C         139.7469  146.2971  161.8941 C.3     1  UNL1        0.4294
     30 O         138.5093  145.4557  161.9956 O.3     1  UNL1       -0.4346
@<TRIPOS>BOND
     1    16    17   am
     2    17    18    2
     3    17    10    1
     4    10    11   ar
     5    11    12   ar
     6    12    13   ar
     7    13    14   ar
     8    14     9    1
     9     1     9    1
    10     1     2    1
    11     3     2    1
    12     3     4    1
    13     4     5    1
    14     6     5    1
    15     6     7    1
    16     6     8    1
    17     8    21    1
    18    21    22    1
    19    22    23   ar
    20    23    24   ar
    21    24    25   ar
    22    25    26   ar
    23    26    27   ar
    24    26    28    1
    25    28    29    1
    26    29    30    1
    27    14    15   ar
    28    15    10   ar
    29     7     1    1
    30    27    22   ar
    31     8     3    1
    32    30    25    1
    33    16    19    1
    34    16    20    1
@<TRIPOS>MOLECULE
*****
 30 34 0 0 0
SMALL
GASTEIGER

@<TRIPOS>ATOM
      1 C         141.6580  140.4941  166.7996 C.3     1  UNL1        0.1686
      2 C         142.5354  139.8192  167.8119 C.3     1  UNL1        0.0595
      3 C         142.0395  139.6068  169.2115 C.3     1  UNL1        0.0614
      4 C         141.1663  139.6078  170.4312 C.3     1  UNL1        0.0175
      5 C         139.8668  140.2645  170.0703 C.3     1  UNL1        0.0175
      6 C         139.9369  140.6694  168.6277 C.3     1  UNL1        0.0614
      7 C         140.2847  140.9566  167.1870 C.3     1  UNL1        0.0595
      8 N         141.2797  140.2629  168.0970 N.3     1  UNL1       -0.2713
      9 O         142.1539  140.7064  165.4000 O.3     1  UNL1       -0.4791
     10 C         142.5754  144.1734  163.5152 C.ar    1  UNL1        0.0561
     11 C         143.8071  144.7105  164.1818 C.ar    1  UNL1        0.0047
     12 C         144.4878  143.9129  165.2545 C.ar    1  UNL1        0.0033
     13 C         143.9368  142.5782  165.6605 C.ar    1  UNL1        0.0369
     14 C         142.7050  142.0411  164.9939 C.ar    1  UNL1        0.1385
     15 C         142.0243  142.8387  163.9213 C.ar    1  UNL1        0.0414
     16 N         140.8633  145.9961  162.8105 N.am    1  UNL1       -0.3253
     17 C         141.8947  144.9710  162.4426 C.2     1  UNL1        0.2428
     18 O         142.2456  144.7435  161.0021 O.2     1  UNL1       -0.2704
     19 H         140.4166  146.5196  162.1065 H       1  UNL1        0.1453
     20 H         140.6330  146.1454  163.7560 H       1  UNL1        0.1453
     21 C         141.7756  140.4753  166.6973 C.3     1  UNL1        0.0992
     22 C         141.2373  139.6372  165.5756 C.ar    1  UNL1       -0.0029
     23 C         141.9916  138.4247  165.1166 C.ar    1  UNL1        0.0004
     24 C         141.4534  137.5867  163.9950 C.ar    1  UNL1        0.0399
     25 C         140.1608  137.9613  163.3324 C.ar    1  UNL1        0.1764
     26 C         139.4065  139.1738  163.7915 C.ar    1  UNL1        0.1762
     27 C         139.9447  140.0118  164.9131 C.ar    1  UNL1        0.0373
     28 O         138.1681  139.2941  162.9537 O.3     1  UNL1       -0.4346
     29 C         138.1571  138.1558  161.9768 C.3     1  UNL1        0.4294
     30 O         139.3886  137.3321  162.2109 O.3     1  UNL1       -0.4346
@<TRIPOS>BOND
     1    16    17   am
     2    17    18    2
     3    17    10    1
     4    10    11   ar
     5    11    12   ar
     6    12    13   ar
     7    13    14   ar
     8    14     9    1
     9     1     9    1
    10     1     2    1
    11     3     2    1
    12     3     4    1
    13     4     5    1
    14     6     5    1
    15     6     7    1
    16     6     8    1
    17     8    21    1
    18    21    22    1
    19    22    23   ar
    20    23    24   ar
    21    24    25   ar
    22    25    26   ar
    23    26    27   ar
    24    26    28    1
    25    28    29    1
    26    29    30    1
    27    14    15   ar
    28    15    10   ar
    29     7     1    1
    30    27    22   ar
    31     8     3    1
    32    30    25    1
    33    16    19    1
    34    16    20    1
