@<TRIPOS>MOLECULE
*****
 32 35 0 0 0
SMALL
GASTEIGER

@<TRIPOS>ATOM
      1 C         142.3456  143.5531  158.6624 C.2     1  UNL1        0.0596
      2 C         141.8549  142.6313  159.7394 C.2     1  UNL1        0.0324
      3 C         140.7826  143.0861  160.6845 C.2     1  UNL1        0.0889
      4 N         140.1040  142.4044  161.8355 N.2     1  UNL1       -0.2236
      5 C         139.1031  143.3595  162.4151 C.2     1  UNL1        0.1859
      6 N         139.1631  144.6315  161.6224 N.2     1  UNL1       -0.2387
      7 C         140.2011  144.4625  160.5528 C.3     1  UNL1        0.1679
      8 C         140.6919  145.3842  159.4759 C.2     1  UNL1        0.0164
      9 C         141.7642  144.9294  158.5308 C.2     1  UNL1        0.0690
     10 CL        142.2550  145.8511  157.4538 Cl      1  UNL1       -0.0812
     11 N         145.5626  142.1887  155.8269 N.3     1  UNL1       -0.2698
     12 C         145.8519  142.2935  157.2950 C.3     1  UNL1        0.0938
     13 C         144.7796  142.7483  158.2402 C.3     1  UNL1        0.1081
     14 N         143.4180  143.0983  157.7172 N.pl3   1  UNL1       -0.3040
     15 C         143.1287  142.9935  156.2491 C.3     1  UNL1        0.1081
     16 C         144.2010  142.5387  155.3040 C.3     1  UNL1        0.0938
     17 C         148.0713  141.7499  155.3133 C.3     1  UNL1        0.0188
     18 C         146.6348  141.7340  154.8817 C.3     1  UNL1        0.0722
     19 S         138.2007  143.0900  163.5826 S.3     1  UNL1       -0.0777
     20 C         138.2780  141.7765  164.3027 C.3     1  UNL1        0.0462
     21 C         137.2589  141.4394  163.2550 C.3     1  UNL1        0.0113
     22 C         139.2702  142.5697  165.1004 C.3     1  UNL1        0.0118
     23 C         139.9859  141.9324  166.2544 C.3     1  UNL1        0.0183
     24 C         139.7093  140.5017  166.6107 C.3     1  UNL1        0.0752
     25 C         138.7171  139.7086  165.8130 C.3     1  UNL1        0.0183
     26 C         138.0014  140.3459  164.6590 C.3     1  UNL1        0.0118
     27 N         140.4249  139.8644  167.7647 N.3     1  UNL1       -0.1846
     28 H         141.4182  139.8664  167.5326 H       1  UNL1        0.1484
     29 S         140.3005  140.4499  169.1401 S.O2    1  UNL1        0.0426
     30 C         140.1760  141.0355  170.5155 C.3     1  UNL1        0.1957
     31 O         141.6891  141.0062  169.0289 O.2     1  UNL1       -0.1575
     32 O         138.9119  139.8937  169.2512 O.2     1  UNL1       -0.1575
@<TRIPOS>BOND
     1    17    18    1
     2    18    11    1
     3    11    12    1
     4    12    13    1
     5    13    14    1
     6    14     1    1
     7     1     2    2
     8     2     3    1
     9     3     4    2
    10     4     5    1
    11     5    19    1
    12    19    20    1
    13    20    21    1
    14    20    22    1
    15    22    23    1
    16    23    24    1
    17    24    27    1
    18    27    29    1
    19    29    30    1
    20    29    31    2
    21    29    32    2
    22    24    25    1
    23    25    26    1
    24     5     6    2
    25     6     7    1
    26     7     8    1
    27     8     9    2
    28     9    10    1
    29    14    15    1
    30    15    16    1
    31    16    11    1
    32     9     1    1
    33     7     3    1
    34    26    20    1
    35    27    28    1
@<TRIPOS>MOLECULE
*****
 32 35 0 0 0
SMALL
GASTEIGER

@<TRIPOS>ATOM
      1 C         140.8561  139.1834  163.9472 C.2     1  UNL1        0.0596
      2 C         141.5625  139.6861  162.7231 C.2     1  UNL1        0.0324
      3 C         141.0674  139.3014  161.3604 C.2     1  UNL1        0.0889
      4 N         141.5547  139.6404  159.9829 N.2     1  UNL1       -0.2236
      5 C         140.6544  138.9626  158.9930 C.2     1  UNL1        0.1859
      6 N         139.6107  138.2047  159.7587 N.2     1  UNL1       -0.2387
      7 C         139.8660  138.4141  161.2219 C.3     1  UNL1        0.1679
      8 C         139.1596  137.9115  162.4460 C.2     1  UNL1        0.0164
      9 C         139.6547  138.2962  163.8086 C.2     1  UNL1        0.0690
     10 CL        138.9483  137.7935  165.0328 Cl      1  UNL1       -0.0812
     11 N         142.3414  140.3376  168.0353 N.3     1  UNL1       -0.2698
     12 C         141.2864  141.1628  167.3601 C.3     1  UNL1        0.0938
     13 C         140.7913  140.7781  165.9974 C.3     1  UNL1        0.1081
     14 N         141.3512  139.5682  165.3100 N.pl3   1  UNL1       -0.3040
     15 C         142.4062  138.7429  165.9852 C.3     1  UNL1        0.1081
     16 C         142.9013  139.1276  167.3479 C.3     1  UNL1        0.0938
     17 C         143.5099  142.0465  169.6051 C.3     1  UNL1        0.0188
     18 C         142.8365  140.7222  169.3980 C.3     1  UNL1        0.0722
     19 S         140.7764  139.0307  157.4995 S.3     1  UNL1       -0.0777
     20 C         140.7621  137.7695  156.6875 C.3     1  UNL1        0.0462
     21 C         139.4233  138.3342  156.3151 C.3     1  UNL1        0.0113
     22 C         142.1059  137.6428  157.3420 C.3     1  UNL1        0.0118
     23 C         142.9705  136.4510  157.0551 C.3     1  UNL1        0.0183
     24 C         142.4912  135.3859  156.1138 C.3     1  UNL1        0.0752
     25 C         141.1475  135.5127  155.4594 C.3     1  UNL1        0.0183
     26 C         140.2829  136.7045  155.7463 C.3     1  UNL1        0.0118
     27 N         143.3557  134.1942  155.8270 N.3     1  UNL1       -0.1846
     28 H         144.0369  134.1355  156.5839 H       1  UNL1        0.1484
     29 S         142.7377  132.8339  155.6942 S.O2    1  UNL1        0.0426
     30 C         142.1197  131.4735  155.5613 C.3     1  UNL1        0.1957
     31 O         142.8745  132.9174  154.2028 O.2     1  UNL1       -0.1575
     32 O         142.6010  132.7504  157.1856 O.2     1  UNL1       -0.1575
@<TRIPOS>BOND
     1    17    18    1
     2    18    11    1
     3    11    12    1
     4    12    13    1
     5    13    14    1
     6    14     1    1
     7     1     2    2
     8     2     3    1
     9     3     4    2
    10     4     5    1
    11     5    19    1
    12    19    20    1
    13    20    21    1
    14    20    22    1
    15    22    23    1
    16    23    24    1
    17    24    27    1
    18    27    29    1
    19    29    30    1
    20    29    31    2
    21    29    32    2
    22    24    25    1
    23    25    26    1
    24     5     6    2
    25     6     7    1
    26     7     8    1
    27     8     9    2
    28     9    10    1
    29    14    15    1
    30    15    16    1
    31    16    11    1
    32     9     1    1
    33     7     3    1
    34    26    20    1
    35    27    28    1
@<TRIPOS>MOLECULE
*****
 32 35 0 0 0
SMALL
GASTEIGER

@<TRIPOS>ATOM
      1 C         142.8215  137.6375  157.8301 C.2     1  UNL1        0.0596
      2 C         142.8524  137.4736  159.3209 C.2     1  UNL1        0.0324
      3 C         143.2522  138.6260  160.1939 C.2     1  UNL1        0.0889
      4 N         143.3748  138.7621  161.6826 N.2     1  UNL1       -0.2236
      5 C         143.8193  140.1624  161.9850 C.2     1  UNL1        0.1859
      6 N         143.9715  140.8918  160.6832 N.2     1  UNL1       -0.2387
      7 C         143.6210  139.9423  159.5761 C.3     1  UNL1        0.1679
      8 C         143.5900  140.1061  158.0854 C.2     1  UNL1        0.0164
      9 C         143.1902  138.9537  157.2125 C.2     1  UNL1        0.0690
     10 CL        143.1592  139.1176  155.7217 Cl      1  UNL1       -0.0812
     11 N         141.6221  134.1803  155.2110 N.3     1  UNL1       -0.2698
     12 C         140.8016  135.4360  155.2178 C.3     1  UNL1        0.0938
     13 C         141.2014  136.5884  156.0908 C.3     1  UNL1        0.1081
     14 N         142.4217  136.4850  156.9571 N.pl3   1  UNL1       -0.3040
     15 C         143.2421  135.2293  156.9503 C.3     1  UNL1        0.1081
     16 C         142.8423  134.0770  156.0773 C.3     1  UNL1        0.0938
     17 C         141.1110  131.6497  154.9197 C.3     1  UNL1        0.0188
     18 C         141.2224  133.0279  154.3381 C.3     1  UNL1        0.0722
     19 S         144.0680  140.7332  163.3497 S.3     1  UNL1       -0.0777
     20 C         143.8527  142.1961  163.6015 C.3     1  UNL1        0.0462
     21 C         145.3517  142.1467  163.6191 C.3     1  UNL1        0.0113
     22 C         142.4284  141.7375  163.4964 C.3     1  UNL1        0.0118
     23 C         141.3093  142.7246  163.6492 C.3     1  UNL1        0.0183
     24 C         141.6146  144.1704  163.9071 C.3     1  UNL1        0.0752
     25 C         143.0388  144.6290  164.0121 C.3     1  UNL1        0.0183
     26 C         144.1579  143.6419  163.8593 C.3     1  UNL1        0.0118
     27 N         140.4955  145.1575  164.0599 N.3     1  UNL1       -0.1846
     28 H         140.7622  145.9889  163.5325 H       1  UNL1        0.1484
     29 S         139.1085  144.7926  163.6208 S.O2    1  UNL1        0.0426
     30 C         137.7213  144.4277  163.1817 C.3     1  UNL1        0.1957
     31 O         138.7316  144.5111  165.0451 O.2     1  UNL1       -0.1575
     32 O         139.4853  145.0741  162.1965 O.2     1  UNL1       -0.1575
@<TRIPOS>BOND
     1    17    18    1
     2    18    11    1
     3    11    12    1
     4    12    13    1
     5    13    14    1
     6    14     1    1
     7     1     2    2
     8     2     3    1
     9     3     4    2
    10     4     5    1
    11     5    19    1
    12    19    20    1
    13    20    21    1
    14    20    22    1
    15    22    23    1
    16    23    24    1
    17    24    27    1
    18    27    29    1
    19    29    30    1
    20    29    31    2
    21    29    32    2
    22    24    25    1
    23    25    26    1
    24     5     6    2
    25     6     7    1
    26     7     8    1
    27     8     9    2
    28     9    10    1
    29    14    15    1
    30    15    16    1
    31    16    11    1
    32     9     1    1
    33     7     3    1
    34    26    20    1
    35    27    28    1
@<TRIPOS>MOLECULE
*****
 32 35 0 0 0
SMALL
GASTEIGER

@<TRIPOS>ATOM
      1 C         143.4079  140.6733  158.9972 C.2     1  UNL1        0.0596
      2 C         143.6884  139.6108  160.0182 C.2     1  UNL1        0.0324
      3 C         142.6728  139.3025  161.0781 C.2     1  UNL1        0.0889
      4 N         142.6696  138.3168  162.2088 N.2     1  UNL1       -0.2236
      5 C         141.3716  138.4617  162.9464 C.2     1  UNL1        0.1859
      6 N         140.5726  139.5371  162.2717 N.2     1  UNL1       -0.2387
      7 C         141.3767  140.0567  161.1170 C.3     1  UNL1        0.1679
      8 C         141.0963  141.1192  160.0960 C.2     1  UNL1        0.0164
      9 C         142.1119  141.4275  159.0361 C.2     1  UNL1        0.0690
     10 CL        141.8314  142.4900  158.0150 Cl      1  UNL1       -0.0812
     11 N         146.4548  141.5982  155.8173 N.3     1  UNL1       -0.2698
     12 C         145.5247  140.4335  155.6487 C.3     1  UNL1        0.0938
     13 C         144.5091  140.1252  156.7087 C.3     1  UNL1        0.1081
     14 N         144.4236  140.9817  157.9372 N.pl3   1  UNL1       -0.3040
     15 C         145.3536  142.1464  158.1058 C.3     1  UNL1        0.1081
     16 C         146.3692  142.4547  157.0458 C.3     1  UNL1        0.0938
     17 C         148.9339  141.8487  155.0815 C.3     1  UNL1        0.0188
     18 C         147.4704  141.9066  154.7574 C.3     1  UNL1        0.0722
     19 S         140.9471  137.6703  164.1479 S.3     1  UNL1       -0.0777
     20 C         139.9768  138.2586  165.1289 C.3     1  UNL1        0.0462
     21 C         139.0394  137.4330  164.2985 C.3     1  UNL1        0.0113
     22 C         141.2513  138.8799  165.6186 C.3     1  UNL1        0.0118
     23 C         141.2298  139.8027  166.8010 C.3     1  UNL1        0.0183
     24 C         139.9339  140.1042  167.4936 C.3     1  UNL1        0.0752
     25 C         138.6595  139.4829  167.0039 C.3     1  UNL1        0.0183
     26 C         138.6809  138.5601  165.8215 C.3     1  UNL1        0.0118
     27 N         139.9125  141.0271  168.6760 N.3     1  UNL1       -0.1846
     28 H         138.9952  140.9272  169.1109 H       1  UNL1        0.1484
     29 S         140.9288  140.8705  169.7680 S.O2    1  UNL1        0.0426
     30 C         141.9452  140.7141  170.8600 C.3     1  UNL1        0.1957
     31 O         141.5857  142.1493  169.3399 O.2     1  UNL1       -0.1575
     32 O         140.2719  139.5918  170.1960 O.2     1  UNL1       -0.1575
@<TRIPOS>BOND
     1    17    18    1
     2    18    11    1
     3    11    12    1
     4    12    13    1
     5    13    14    1
     6    14     1    1
     7     1     2    2
     8     2     3    1
     9     3     4    2
    10     4     5    1
    11     5    19    1
    12    19    20    1
    13    20    21    1
    14    20    22    1
    15    22    23    1
    16    23    24    1
    17    24    27    1
    18    27    29    1
    19    29    30    1
    20    29    31    2
    21    29    32    2
    22    24    25    1
    23    25    26    1
    24     5     6    2
    25     6     7    1
    26     7     8    1
    27     8     9    2
    28     9    10    1
    29    14    15    1
    30    15    16    1
    31    16    11    1
    32     9     1    1
    33     7     3    1
    34    26    20    1
    35    27    28    1
@<TRIPOS>MOLECULE
*****
 32 35 0 0 0
SMALL
GASTEIGER

@<TRIPOS>ATOM
      1 C         142.9020  138.1564  157.6348 C.2     1  UNL1        0.0596
      2 C         142.9733  137.8147  159.0937 C.2     1  UNL1        0.0324
      3 C         143.3819  138.8593  160.0895 C.2     1  UNL1        0.0889
      4 N         143.5413  138.8169  161.5804 N.2     1  UNL1       -0.2236
      5 C         143.9770  140.1771  162.0388 C.2     1  UNL1        0.1859
      6 N         144.0869  141.0601  160.8313 N.2     1  UNL1       -0.2387
      7 C         143.7192  140.2457  159.6265 C.3     1  UNL1        0.1679
      8 C         143.6478  140.5873  158.1677 C.2     1  UNL1        0.0164
      9 C         143.2392  139.5427  157.1719 C.2     1  UNL1        0.0690
     10 CL        143.1679  139.8844  155.7130 Cl      1  UNL1       -0.0812
     11 N         141.6762  135.0223  154.6472 N.3     1  UNL1       -0.2698
     12 C         143.1213  135.1824  155.0161 C.3     1  UNL1        0.0938
     13 C         143.5299  136.2271  156.0119 C.3     1  UNL1        0.1081
     14 N         142.4934  137.1117  156.6389 N.pl3   1  UNL1       -0.3040
     15 C         141.0483  136.9516  156.2701 C.3     1  UNL1        0.1081
     16 C         140.6397  135.9070  155.2742 C.3     1  UNL1        0.0938
     17 C         141.7118  132.5562  153.8305 C.3     1  UNL1        0.0188
     18 C         141.2675  133.9777  153.6514 C.3     1  UNL1        0.0722
     19 S         144.2541  140.5829  163.4561 S.3     1  UNL1       -0.0777
     20 C         143.4360  140.0084  164.5744 C.3     1  UNL1        0.0462
     21 C         144.6861  139.1924  164.7203 C.3     1  UNL1        0.0113
     22 C         142.4700  141.0240  164.0401 C.3     1  UNL1        0.0118
     23 C         141.1201  141.1817  164.6748 C.3     1  UNL1        0.0183
     24 C         140.7362  140.3237  165.8438 C.3     1  UNL1        0.0752
     25 C         141.7022  139.3082  166.3781 C.3     1  UNL1        0.0183
     26 C         143.0521  139.1505  165.7434 C.3     1  UNL1        0.0118
     27 N         139.3862  140.4814  166.4785 N.3     1  UNL1       -0.1846
     28 H         138.8629  141.1372  165.8984 H       1  UNL1        0.1484
     29 S         138.5068  139.2828  166.6783 S.O2    1  UNL1        0.0426
     30 C         137.6274  138.0842  166.8782 C.3     1  UNL1        0.1957
     31 O         138.7196  139.3737  168.1603 O.2     1  UNL1       -0.1575
     32 O         138.2940  139.1919  165.1963 O.2     1  UNL1       -0.1575
@<TRIPOS>BOND
     1    17    18    1
     2    18    11    1
     3    11    12    1
     4    12    13    1
     5    13    14    1
     6    14     1    1
     7     1     2    2
     8     2     3    1
     9     3     4    2
    10     4     5    1
    11     5    19    1
    12    19    20    1
    13    20    21    1
    14    20    22    1
    15    22    23    1
    16    23    24    1
    17    24    27    1
    18    27    29    1
    19    29    30    1
    20    29    31    2
    21    29    32    2
    22    24    25    1
    23    25    26    1
    24     5     6    2
    25     6     7    1
    26     7     8    1
    27     8     9    2
    28     9    10    1
    29    14    15    1
    30    15    16    1
    31    16    11    1
    32     9     1    1
    33     7     3    1
    34    26    20    1
    35    27    28    1
@<TRIPOS>MOLECULE
*****
 32 35 0 0 0
SMALL
GASTEIGER

@<TRIPOS>ATOM
      1 C         140.6468  139.7430  162.0949 C.2     1  UNL1        0.0596
      2 C         141.7990  139.4009  161.1975 C.2     1  UNL1        0.0324
      3 C         141.5452  138.7939  159.8495 C.2     1  UNL1        0.0889
      4 N         142.4730  138.3546  158.7558 N.2     1  UNL1       -0.2236
      5 C         141.6404  137.8182  157.6293 C.2     1  UNL1        0.1859
      6 N         140.1980  137.9261  158.0268 N.2     1  UNL1       -0.2387
      7 C         140.1392  138.5291  159.3990 C.3     1  UNL1        0.1679
      8 C         138.9870  138.8712  160.2964 C.2     1  UNL1        0.0164
      9 C         139.2409  139.4782  161.6444 C.2     1  UNL1        0.0690
     10 CL        138.0886  139.8204  162.5418 Cl      1  UNL1       -0.0812
     11 N         141.4083  141.5640  166.1391 N.3     1  UNL1       -0.2698
     12 C         141.3542  140.0728  165.9861 C.3     1  UNL1        0.0938
     13 C         141.1004  139.4658  164.6381 C.3     1  UNL1        0.1081
     14 N         140.9006  140.3501  163.4430 N.pl3   1  UNL1       -0.3040
     15 C         140.9547  141.8412  163.5960 C.3     1  UNL1        0.1081
     16 C         141.2085  142.4482  164.9440 C.3     1  UNL1        0.0938
     17 C         143.0539  142.2024  168.0454 C.3     1  UNL1        0.0188
     18 C         141.6621  142.1710  167.4870 C.3     1  UNL1        0.0722
     19 S         142.1590  137.2702  156.3329 S.3     1  UNL1       -0.0777
     20 C         141.9821  135.8164  156.0088 C.3     1  UNL1        0.0462
     21 C         141.0384  136.4220  155.0125 C.3     1  UNL1        0.0113
     22 C         142.9872  135.7157  157.1178 C.3     1  UNL1        0.0118
     23 C         143.4877  134.3714  157.5566 C.3     1  UNL1        0.0183
     24 C         142.9830  133.1279  156.8865 C.3     1  UNL1        0.0752
     25 C         141.9779  133.2287  155.7777 C.3     1  UNL1        0.0183
     26 C         141.4774  134.5729  155.3388 C.3     1  UNL1        0.0118
     27 N         143.4834  131.7836  157.3254 N.3     1  UNL1       -0.1846
     28 H         142.6789  131.2753  157.6923 H       1  UNL1        0.1484
     29 S         144.1565  130.8755  156.3394 S.O2    1  UNL1        0.0426
     30 C         144.8296  129.9672  155.3534 C.3     1  UNL1        0.1957
     31 O         143.0251  129.8989  156.4666 O.2     1  UNL1       -0.1575
     32 O         145.2879  131.8521  156.2123 O.2     1  UNL1       -0.1575
@<TRIPOS>BOND
     1    17    18    1
     2    18    11    1
     3    11    12    1
     4    12    13    1
     5    13    14    1
     6    14     1    1
     7     1     2    2
     8     2     3    1
     9     3     4    2
    10     4     5    1
    11     5    19    1
    12    19    20    1
    13    20    21    1
    14    20    22    1
    15    22    23    1
    16    23    24    1
    17    24    27    1
    18    27    29    1
    19    29    30    1
    20    29    31    2
    21    29    32    2
    22    24    25    1
    23    25    26    1
    24     5     6    2
    25     6     7    1
    26     7     8    1
    27     8     9    2
    28     9    10    1
    29    14    15    1
    30    15    16    1
    31    16    11    1
    32     9     1    1
    33     7     3    1
    34    26    20    1
    35    27    28    1
@<TRIPOS>MOLECULE
*****
 32 35 0 0 0
SMALL
GASTEIGER

@<TRIPOS>ATOM
      1 C         142.2679  140.1641  163.6716 C.2     1  UNL1        0.0596
      2 C         141.3749  140.2631  162.4704 C.2     1  UNL1        0.0324
      3 C         141.8751  139.8246  161.1259 C.2     1  UNL1        0.0889
      4 N         141.2290  139.8043  159.7724 N.2     1  UNL1       -0.2236
      5 C         142.2228  139.2543  158.7926 C.2     1  UNL1        0.1859
      6 N         143.4831  138.9347  159.5406 N.2     1  UNL1       -0.2387
      7 C         143.2682  139.2872  160.9827 C.3     1  UNL1        0.1679
      8 C         144.1611  139.1883  162.1839 C.2     1  UNL1        0.0164
      9 C         143.6609  139.6267  163.5284 C.2     1  UNL1        0.0690
     10 CL        144.5539  139.5277  164.7296 Cl      1  UNL1       -0.0812
     11 N         140.7673  141.4794  167.7050 N.3     1  UNL1       -0.2698
     12 C         140.7190  140.0297  167.3231 C.3     1  UNL1        0.0938
     13 C         141.2192  139.5913  165.9786 C.3     1  UNL1        0.1081
     14 N         141.7677  140.6026  165.0161 N.pl3   1  UNL1       -0.3040
     15 C         141.8159  142.0523  165.3981 C.3     1  UNL1        0.1081
     16 C         141.3157  142.4908  166.7425 C.3     1  UNL1        0.0938
     17 C         140.4672  143.3352  169.4984 C.3     1  UNL1        0.0188
     18 C         140.2671  141.9180  169.0494 C.3     1  UNL1        0.0722
     19 S         141.9961  139.0583  157.3229 S.3     1  UNL1       -0.0777
     20 C         142.9690  138.2517  156.5149 C.3     1  UNL1        0.0462
     21 C         143.3270  139.6325  156.0510 C.3     1  UNL1        0.0113
     22 C         142.2731  137.1510  157.2595 C.3     1  UNL1        0.0118
     23 C         142.6744  135.7232  157.0350 C.3     1  UNL1        0.0183
     24 C         143.7717  135.3961  156.0659 C.3     1  UNL1        0.0752
     25 C         144.4675  136.4968  155.3214 C.3     1  UNL1        0.0183
     26 C         144.0662  137.9246  155.5459 C.3     1  UNL1        0.0118
     27 N         144.1730  133.9683  155.8414 N.3     1  UNL1       -0.1846
     28 H         144.7811  133.7078  156.6177 H       1  UNL1        0.1484
     29 S         143.1234  132.9019  155.7368 S.O2    1  UNL1        0.0426
     30 C         142.0737  131.8354  155.6322 C.3     1  UNL1        0.1957
     31 O         142.7378  133.4143  154.3808 O.2     1  UNL1       -0.1575
     32 O         143.5089  132.3895  157.0928 O.2     1  UNL1       -0.1575
@<TRIPOS>BOND
     1    17    18    1
     2    18    11    1
     3    11    12    1
     4    12    13    1
     5    13    14    1
     6    14     1    1
     7     1     2    2
     8     2     3    1
     9     3     4    2
    10     4     5    1
    11     5    19    1
    12    19    20    1
    13    20    21    1
    14    20    22    1
    15    22    23    1
    16    23    24    1
    17    24    27    1
    18    27    29    1
    19    29    30    1
    20    29    31    2
    21    29    32    2
    22    24    25    1
    23    25    26    1
    24     5     6    2
    25     6     7    1
    26     7     8    1
    27     8     9    2
    28     9    10    1
    29    14    15    1
    30    15    16    1
    31    16    11    1
    32     9     1    1
    33     7     3    1
    34    26    20    1
    35    27    28    1
@<TRIPOS>MOLECULE
*****
 32 35 0 0 0
SMALL
GASTEIGER

@<TRIPOS>ATOM
      1 C         143.7434  140.0263  157.5224 C.2     1  UNL1        0.0596
      2 C         143.9144  140.3875  158.9683 C.2     1  UNL1        0.0324
      3 C         143.3106  139.5217  160.0340 C.2     1  UNL1        0.0889
      4 N         143.3124  139.6238  161.5305 N.2     1  UNL1       -0.2236
      5 C         142.5387  138.4600  162.0754 C.2     1  UNL1        0.1859
      6 N         142.0588  137.6386  160.9156 N.2     1  UNL1       -0.2387
      7 C         142.5359  138.2948  159.6540 C.3     1  UNL1        0.1679
      8 C         142.3649  137.9337  158.2082 C.2     1  UNL1        0.0164
      9 C         142.9687  138.7995  157.1424 C.2     1  UNL1        0.0690
     10 CL        142.7977  138.4382  155.6966 Cl      1  UNL1       -0.0812
     11 N         145.5548  142.6236  154.3251 N.3     1  UNL1       -0.2698
     12 C         146.3279  141.4616  154.8746 C.3     1  UNL1        0.0938
     13 C         145.7241  140.5959  155.9404 C.3     1  UNL1        0.1081
     14 N         144.3472  140.8921  156.4566 N.pl3   1  UNL1       -0.3040
     15 C         143.5741  142.0541  155.9070 C.3     1  UNL1        0.1081
     16 C         144.1779  142.9199  154.8412 C.3     1  UNL1        0.0938
     17 C         146.8067  144.7909  153.6282 C.3     1  UNL1        0.0188
     18 C         146.1585  143.4894  153.2593 C.3     1  UNL1        0.0722
     19 S         142.2889  138.1686  163.5254 S.3     1  UNL1       -0.0777
     20 C         140.9072  138.3112  164.0918 C.3     1  UNL1        0.0462
     21 C         141.1471  136.8539  164.3540 C.3     1  UNL1        0.0113
     22 C         141.1472  139.7190  163.6330 C.3     1  UNL1        0.0118
     23 C         140.0889  140.7634  163.8315 C.3     1  UNL1        0.0183
     24 C         138.7906  140.3998  164.4890 C.3     1  UNL1        0.0752
     25 C         138.5506  138.9921  164.9478 C.3     1  UNL1        0.0183
     26 C         139.6089  137.9477  164.7493 C.3     1  UNL1        0.0118
     27 N         137.7323  141.4441  164.6875 N.3     1  UNL1       -0.1846
     28 H         137.7995  141.7507  165.6581 H       1  UNL1        0.1484
     29 S         137.7326  142.6826  163.8413 S.O2    1  UNL1        0.0426
     30 C         137.7329  143.9211  162.9949 C.3     1  UNL1        0.1957
     31 O         137.0516  141.9287  162.7377 O.2     1  UNL1       -0.1575
     32 O         138.4137  143.4365  164.9448 O.2     1  UNL1       -0.1575
@<TRIPOS>BOND
     1    17    18    1
     2    18    11    1
     3    11    12    1
     4    12    13    1
     5    13    14    1
     6    14     1    1
     7     1     2    2
     8     2     3    1
     9     3     4    2
    10     4     5    1
    11     5    19    1
    12    19    20    1
    13    20    21    1
    14    20    22    1
    15    22    23    1
    16    23    24    1
    17    24    27    1
    18    27    29    1
    19    29    30    1
    20    29    31    2
    21    29    32    2
    22    24    25    1
    23    25    26    1
    24     5     6    2
    25     6     7    1
    26     7     8    1
    27     8     9    2
    28     9    10    1
    29    14    15    1
    30    15    16    1
    31    16    11    1
    32     9     1    1
    33     7     3    1
    34    26    20    1
    35    27    28    1
@<TRIPOS>MOLECULE
*****
 32 35 0 0 0
SMALL
GASTEIGER

@<TRIPOS>ATOM
      1 C         139.6847  142.5298  164.4451 C.2     1  UNL1        0.0596
      2 C         140.2784  141.8463  163.2489 C.2     1  UNL1        0.0324
      3 C         140.0676  142.4169  161.8778 C.2     1  UNL1        0.0889
      4 N         140.5263  141.9674  160.5223 N.2     1  UNL1       -0.2236
      5 C         140.0055  142.9435  159.5095 C.2     1  UNL1        0.1859
      6 N         139.2248  143.9963  160.2390 N.2     1  UNL1       -0.2387
      7 C         139.2632  143.6708  161.7028 C.3     1  UNL1        0.1679
      8 C         138.6697  144.3542  162.8989 C.2     1  UNL1        0.0164
      9 C         138.8805  143.7837  164.2700 C.2     1  UNL1        0.0690
     10 CL        138.2869  144.4672  165.4661 Cl      1  UNL1       -0.0812
     11 N         140.3171  140.8181  168.5585 N.3     1  UNL1       -0.2698
     12 C         139.4457  140.0982  167.5724 C.3     1  UNL1        0.0938
     13 C         139.2350  140.6687  166.2013 C.3     1  UNL1        0.1081
     14 N         139.8955  141.9592  165.8163 N.pl3   1  UNL1       -0.3040
     15 C         140.7669  142.6792  166.8024 C.3     1  UNL1        0.1081
     16 C         140.9777  142.1086  168.1735 C.3     1  UNL1        0.0938
     17 C         141.3236  141.0121  170.9459 C.3     1  UNL1        0.0188
     18 C         140.5279  140.2476  169.9297 C.3     1  UNL1        0.0722
     19 S         140.2265  142.8784  158.0273 S.3     1  UNL1       -0.0777
     20 C         139.0521  142.8410  157.0948 C.3     1  UNL1        0.0462
     21 C         139.4893  144.2634  156.9061 C.3     1  UNL1        0.0113
     22 C         139.0228  141.4315  157.6073 C.3     1  UNL1        0.0118
     23 C         137.9710  140.4786  157.1219 C.3     1  UNL1        0.0183
     24 C         136.9484  140.9352  156.1238 C.3     1  UNL1        0.0752
     25 C         136.9778  142.3446  155.6114 C.3     1  UNL1        0.0183
     26 C         138.0296  143.2975  156.0968 C.3     1  UNL1        0.0118
     27 N         135.8966  139.9823  155.6384 N.3     1  UNL1       -0.1846
     28 H         136.0806  139.0861  156.0892 H       1  UNL1        0.1484
     29 S         134.4455  140.2897  155.8618 S.O2    1  UNL1        0.0426
     30 C         132.9944  140.5970  156.0853 C.3     1  UNL1        0.1957
     31 O         134.5807  139.8829  157.2993 O.2     1  UNL1       -0.1575
     32 O         134.3103  140.6964  154.4244 O.2     1  UNL1       -0.1575
@<TRIPOS>BOND
     1    17    18    1
     2    18    11    1
     3    11    12    1
     4    12    13    1
     5    13    14    1
     6    14     1    1
     7     1     2    2
     8     2     3    1
     9     3     4    2
    10     4     5    1
    11     5    19    1
    12    19    20    1
    13    20    21    1
    14    20    22    1
    15    22    23    1
    16    23    24    1
    17    24    27    1
    18    27    29    1
    19    29    30    1
    20    29    31    2
    21    29    32    2
    22    24    25    1
    23    25    26    1
    24     5     6    2
    25     6     7    1
    26     7     8    1
    27     8     9    2
    28     9    10    1
    29    14    15    1
    30    15    16    1
    31    16    11    1
    32     9     1    1
    33     7     3    1
    34    26    20    1
    35    27    28    1
