@<TRIPOS>MOLECULE
*****
 46 52 0 0 0
SMALL
GASTEIGER

@<TRIPOS>ATOM
      1 C         139.5594  138.9357  162.4058 C.ar    1  UNL1       -0.0061
      2 C         140.7979  139.7281  162.7027 C.ar    1  UNL1       -0.0029
      3 C         140.9429  140.4269  164.0220 C.ar    1  UNL1        0.0011
      4 C         139.8494  140.3332  165.0445 C.ar    1  UNL1        0.0156
      5 C         138.6109  139.5407  164.7476 C.ar    1  UNL1        0.0011
      6 C         138.4659  138.8420  163.4283 C.ar    1  UNL1       -0.0029
      7 C         139.9944  141.0320  166.3639 C.ar    1  UNL1        0.0565
      8 N         140.2905  140.2406  167.6032 N.ar    1  UNL1       -0.3530
      9 C         140.4356  140.9394  168.9226 C.ar    1  UNL1        0.0628
     10 C         140.7316  140.1480  170.1619 C.ar    1  UNL1        0.0378
     11 C         140.8767  140.8468  171.4812 C.ar    1  UNL1        0.1037
     12 N         140.7256  142.3370  171.5612 N.ar    1  UNL1       -0.2062
     13 C         140.4295  143.1284  170.3219 C.ar    1  UNL1        0.2806
     14 O         140.2784  144.6187  170.4018 O.2     1  UNL1       -0.2651
     15 C         140.2845  142.4296  169.0026 C.ar    1  UNL1        0.0735
     16 C         139.9884  143.2210  167.7632 C.ar    1  UNL1        0.0077
     17 C         139.8434  142.5222  166.4439 C.ar    1  UNL1        0.0158
     18 H         140.3897  139.2625  167.5507 H       1  UNL1        0.1659
     19 C         139.5473  143.3137  165.2045 C.ar    1  UNL1        0.0014
     20 C         138.1450  143.3837  164.6765 C.ar    1  UNL1        0.0000
     21 C         137.8488  144.1751  163.4372 C.ar    1  UNL1        0.0000
     22 C         138.9550  144.8964  162.7258 C.ar    1  UNL1        0.0000
     23 C         140.3573  144.8263  163.2537 C.ar    1  UNL1        0.0000
     24 C         140.6534  144.0349  164.4931 C.ar    1  UNL1        0.0000
     25 C         139.4144  138.2369  161.0864 C.3     1  UNL1        0.0991
     26 C         142.5940  138.6964  157.9354 C.3     1  UNL1        0.0613
     27 C         141.1735  139.0670  157.6272 C.3     1  UNL1        0.0249
     28 C         140.1136  138.9138  158.6776 C.3     1  UNL1        0.0728
     29 N         140.4742  138.3901  160.0361 N.3     1  UNL1       -0.2689
     30 C         141.8947  138.0195  160.3443 C.3     1  UNL1        0.0728
     31 C         142.9545  138.1727  159.2940 C.3     1  UNL1        0.0249
     32 C         145.3586  139.8097  155.4489 C.ar    1  UNL1        0.1644
     33 N         145.2109  138.3610  155.0886 N.ar    1  UNL1       -0.1293
     34 N         144.1573  137.7677  155.9762 N.ar    1  UNL1       -0.1336
     35 C         143.6538  138.8496  156.8851 C.ar    1  UNL1        0.1396
     36 N         144.3963  140.1116  156.5592 N.ar    1  UNL1       -0.3245
     37 H         144.2735  140.9847  156.9971 H       1  UNL1        0.1686
     38 N         149.1357  143.7113  152.8971 N.pl3   1  UNL1       -0.3426
     39 C         148.1914  142.7359  153.5351 C.ar    1  UNL1        0.1254
     40 C         148.1632  142.5858  155.0274 C.ar    1  UNL1        0.0340
     41 C         147.2189  141.6104  155.6652 C.ar    1  UNL1        0.0075
     42 C         146.3029  140.7851  154.8110 C.ar    1  UNL1        0.0550
     43 C         146.3311  140.9351  153.3188 C.ar    1  UNL1        0.1033
     44 N         147.2754  141.9105  152.6808 N.ar    1  UNL1       -0.2295
     45 H         149.7369  144.2529  153.4578 H       1  UNL1        0.1437
     46 H         149.1543  143.8098  151.9177 H       1  UNL1        0.1437
@<TRIPOS>BOND
     1    38    39    1
     2    39    40   ar
     3    40    41   ar
     4    41    42   ar
     5    42    32    1
     6    32    33   ar
     7    33    34   ar
     8    34    35   ar
     9    35    26    1
    10    26    27    1
    11    27    28    1
    12    28    29    1
    13    29    25    1
    14    25     1    1
    15     1     2   ar
    16     2     3   ar
    17     3     4   ar
    18     4     7    1
    19     7     8   ar
    20     8     9   ar
    21     9    10   ar
    22    10    11   ar
    23    11    12   ar
    24    12    13   ar
    25    13    14    2
    26    13    15   ar
    27    15    16   ar
    28    16    17   ar
    29    17    19    1
    30    19    20   ar
    31    20    21   ar
    32    21    22   ar
    33    22    23   ar
    34    23    24   ar
    35     4     5   ar
    36     5     6   ar
    37    29    30    1
    38    30    31    1
    39    35    36   ar
    40    42    43   ar
    41    43    44   ar
    42    44    39   ar
    43    36    32   ar
    44    31    26    1
    45     6     1   ar
    46    17     7   ar
    47    24    19   ar
    48    15     9    1
    49    38    45    1
    50    38    46    1
    51     8    18    1
    52    36    37    1
@<TRIPOS>MOLECULE
*****
 46 52 0 0 0
SMALL
GASTEIGER

@<TRIPOS>ATOM
      1 C         143.1646  141.7218  161.8597 C.ar    1  UNL1       -0.0061
      2 C         143.5931  142.8368  162.7670 C.ar    1  UNL1       -0.0029
      3 C         143.1392  142.8569  164.1965 C.ar    1  UNL1        0.0011
      4 C         142.2567  141.7621  164.7187 C.ar    1  UNL1        0.0156
      5 C         141.8282  140.6472  163.8113 C.ar    1  UNL1        0.0011
      6 C         142.2821  140.6271  162.3819 C.ar    1  UNL1       -0.0029
      7 C         141.8028  141.7823  166.1482 C.ar    1  UNL1        0.0565
      8 N         142.6799  141.2095  167.2218 N.ar    1  UNL1       -0.3530
      9 C         142.2259  141.2296  168.6514 C.ar    1  UNL1        0.0628
     10 C         143.1030  140.6568  169.7249 C.ar    1  UNL1        0.0378
     11 C         142.6491  140.6770  171.1544 C.ar    1  UNL1        0.1037
     12 N         141.3180  141.2700  171.5103 N.ar    1  UNL1       -0.2062
     13 C         140.4410  141.8428  170.4368 C.ar    1  UNL1        0.2806
     14 O         139.1099  142.4358  170.7927 O.2     1  UNL1       -0.2651
     15 C         140.8949  141.8226  169.0073 C.ar    1  UNL1        0.0735
     16 C         140.0178  142.3954  167.9337 C.ar    1  UNL1        0.0077
     17 C         140.4717  142.3752  166.5042 C.ar    1  UNL1        0.0158
     18 H         143.5535  140.8203  166.9882 H       1  UNL1        0.1659
     19 C         139.5946  142.9481  165.4305 C.ar    1  UNL1        0.0014
     20 C         138.5044  142.1127  164.8277 C.ar    1  UNL1        0.0000
     21 C         137.6273  142.6854  163.7541 C.ar    1  UNL1        0.0000
     22 C         137.8405  144.0935  163.2834 C.ar    1  UNL1        0.0000
     23 C         138.9307  144.9289  163.8862 C.ar    1  UNL1        0.0000
     24 C         139.8078  144.3562  164.9598 C.ar    1  UNL1        0.0000
     25 C         143.6185  141.7017  160.4301 C.3     1  UNL1        0.0991
     26 C         141.6179  144.3559  157.3965 C.3     1  UNL1        0.0613
     27 C         141.0342  144.2154  158.7711 C.3     1  UNL1        0.0249
     28 C         141.7011  143.3306  159.7823 C.3     1  UNL1        0.0728
     29 N         142.9517  142.5864  159.4189 N.3     1  UNL1       -0.2689
     30 C         143.5355  142.7269  158.0443 C.3     1  UNL1        0.0728
     31 C         142.8686  143.6116  157.0331 C.3     1  UNL1        0.0249
     32 C         139.9843  147.1837  155.2990 C.ar    1  UNL1        0.1644
     33 N         139.8655  146.0204  154.3595 N.ar    1  UNL1       -0.1293
     34 N         140.4630  144.8195  155.0309 N.ar    1  UNL1       -0.1336
     35 C         140.9511  145.2406  156.3853 C.ar    1  UNL1        0.1396
     36 N         140.6552  146.7018  156.5510 N.ar    1  UNL1       -0.3245
     37 H         140.8647  147.2485  157.3425 H       1  UNL1        0.1686
     38 N         138.1057  152.7820  154.2355 N.pl3   1  UNL1       -0.3426
     39 C         138.5753  151.3824  154.5014 C.ar    1  UNL1        0.1254
     40 C         139.4688  150.6910  153.5146 C.ar    1  UNL1        0.0340
     41 C         139.9384  149.2914  153.7805 C.ar    1  UNL1        0.0075
     42 C         139.5147  148.5833  155.0331 C.ar    1  UNL1        0.0550
     43 C         138.6212  149.2748  156.0198 C.ar    1  UNL1        0.1033
     44 N         138.1516  150.6743  155.7540 N.ar    1  UNL1       -0.2295
     45 H         138.3838  153.2467  153.4134 H       1  UNL1        0.1437
     46 H         137.5193  153.2358  154.8832 H       1  UNL1        0.1437
@<TRIPOS>BOND
     1    38    39    1
     2    39    40   ar
     3    40    41   ar
     4    41    42   ar
     5    42    32    1
     6    32    33   ar
     7    33    34   ar
     8    34    35   ar
     9    35    26    1
    10    26    27    1
    11    27    28    1
    12    28    29    1
    13    29    25    1
    14    25     1    1
    15     1     2   ar
    16     2     3   ar
    17     3     4   ar
    18     4     7    1
    19     7     8   ar
    20     8     9   ar
    21     9    10   ar
    22    10    11   ar
    23    11    12   ar
    24    12    13   ar
    25    13    14    2
    26    13    15   ar
    27    15    16   ar
    28    16    17   ar
    29    17    19    1
    30    19    20   ar
    31    20    21   ar
    32    21    22   ar
    33    22    23   ar
    34    23    24   ar
    35     4     5   ar
    36     5     6   ar
    37    29    30    1
    38    30    31    1
    39    35    36   ar
    40    42    43   ar
    41    43    44   ar
    42    44    39   ar
    43    36    32   ar
    44    31    26    1
    45     6     1   ar
    46    17     7   ar
    47    24    19   ar
    48    15     9    1
    49    38    45    1
    50    38    46    1
    51     8    18    1
    52    36    37    1
@<TRIPOS>MOLECULE
*****
 46 52 0 0 0
SMALL
GASTEIGER

@<TRIPOS>ATOM
      1 C         139.9004  139.0804  162.1782 C.ar    1  UNL1       -0.0061
      2 C         138.6799  139.1662  163.0460 C.ar    1  UNL1       -0.0029
      3 C         138.7607  139.8259  164.3907 C.ar    1  UNL1        0.0011
      4 C         140.0620  140.3997  164.8677 C.ar    1  UNL1        0.0156
      5 C         141.2824  140.3139  163.9999 C.ar    1  UNL1        0.0011
      6 C         141.2016  139.6543  162.6552 C.ar    1  UNL1       -0.0029
      7 C         140.1427  141.0594  166.2125 C.ar    1  UNL1        0.0565
      8 N         140.4170  140.2365  167.4362 N.ar    1  UNL1       -0.3530
      9 C         140.4977  140.8962  168.7810 C.ar    1  UNL1        0.0628
     10 C         140.7720  140.0734  170.0048 C.ar    1  UNL1        0.0378
     11 C         140.8527  140.7330  171.3495 C.ar    1  UNL1        0.1037
     12 N         140.6592  142.2156  171.4704 N.ar    1  UNL1       -0.2062
     13 C         140.3849  143.0384  170.2466 C.ar    1  UNL1        0.2806
     14 O         140.1914  144.5210  170.3676 O.2     1  UNL1       -0.2651
     15 C         140.3042  142.3788  168.9019 C.ar    1  UNL1        0.0735
     16 C         140.0300  143.2016  167.6781 C.ar    1  UNL1        0.0077
     17 C         139.9492  142.5419  166.3334 C.ar    1  UNL1        0.0158
     18 H         140.5440  139.2635  167.3568 H       1  UNL1        0.1659
     19 C         139.6750  143.3648  165.1095 C.ar    1  UNL1        0.0014
     20 C         140.8056  144.0380  164.3895 C.ar    1  UNL1        0.0000
     21 C         140.5314  144.8608  163.1657 C.ar    1  UNL1        0.0000
     22 C         139.1266  145.0105  162.6619 C.ar    1  UNL1        0.0000
     23 C         137.9959  144.3373  163.3819 C.ar    1  UNL1        0.0000
     24 C         138.2701  143.5145  164.6057 C.ar    1  UNL1        0.0000
     25 C         139.8196  138.4207  160.8335 C.3     1  UNL1        0.0991
     26 C         142.3994  139.8859  157.4500 C.3     1  UNL1        0.0613
     27 C         142.7565  138.6204  158.1717 C.3     1  UNL1        0.0249
     28 C         141.8965  138.1320  159.2996 C.3     1  UNL1        0.0728
     29 N         140.6795  138.9092  159.7057 N.3     1  UNL1       -0.2689
     30 C         140.3224  140.1747  158.9839 C.3     1  UNL1        0.0728
     31 C         141.1823  140.6631  157.8561 C.3     1  UNL1        0.0249
     32 C         145.1913  141.0517  155.0186 C.ar    1  UNL1        0.1644
     33 N         143.9740  141.2001  154.1547 N.ar    1  UNL1       -0.1293
     34 N         142.7800  140.7815  154.9604 N.ar    1  UNL1       -0.1336
     35 C         143.2593  140.3743  156.3222 C.ar    1  UNL1        0.1396
     36 N         144.7495  140.5414  156.3582 N.ar    1  UNL1       -0.3245
     37 H         145.3349  140.3497  157.1262 H       1  UNL1        0.1686
     38 N         150.8361  142.2835  153.4000 N.pl3   1  UNL1       -0.3426
     39 C         149.4249  141.9755  153.8047 C.ar    1  UNL1        0.1254
     40 C         149.0540  141.9308  155.2575 C.ar    1  UNL1        0.0340
     41 C         147.6428  141.6228  155.6621 C.ar    1  UNL1        0.0075
     42 C         146.6025  141.3597  154.6140 C.ar    1  UNL1        0.0550
     43 C         146.9733  141.4045  153.1613 C.ar    1  UNL1        0.1033
     44 N         148.3845  141.7124  152.7566 N.ar    1  UNL1       -0.2295
     45 H         151.5189  142.4562  154.0879 H       1  UNL1        0.1437
     46 H         151.0795  142.3128  152.4466 H       1  UNL1        0.1437
@<TRIPOS>BOND
     1    38    39    1
     2    39    40   ar
     3    40    41   ar
     4    41    42   ar
     5    42    32    1
     6    32    33   ar
     7    33    34   ar
     8    34    35   ar
     9    35    26    1
    10    26    27    1
    11    27    28    1
    12    28    29    1
    13    29    25    1
    14    25     1    1
    15     1     2   ar
    16     2     3   ar
    17     3     4   ar
    18     4     7    1
    19     7     8   ar
    20     8     9   ar
    21     9    10   ar
    22    10    11   ar
    23    11    12   ar
    24    12    13   ar
    25    13    14    2
    26    13    15   ar
    27    15    16   ar
    28    16    17   ar
    29    17    19    1
    30    19    20   ar
    31    20    21   ar
    32    21    22   ar
    33    22    23   ar
    34    23    24   ar
    35     4     5   ar
    36     5     6   ar
    37    29    30    1
    38    30    31    1
    39    35    36   ar
    40    42    43   ar
    41    43    44   ar
    42    44    39   ar
    43    36    32   ar
    44    31    26    1
    45     6     1   ar
    46    17     7   ar
    47    24    19   ar
    48    15     9    1
    49    38    45    1
    50    38    46    1
    51     8    18    1
    52    36    37    1
@<TRIPOS>MOLECULE
*****
 46 52 0 0 0
SMALL
GASTEIGER

@<TRIPOS>ATOM
      1 C         143.5474  141.7568  162.2835 C.ar    1  UNL1       -0.0061
      2 C         142.2305  142.3675  162.6613 C.ar    1  UNL1       -0.0029
      3 C         141.6855  142.1776  164.0458 C.ar    1  UNL1        0.0011
      4 C         142.4573  141.3770  165.0524 C.ar    1  UNL1        0.0156
      5 C         143.7742  140.7663  164.6746 C.ar    1  UNL1        0.0011
      6 C         144.3192  140.9562  163.2901 C.ar    1  UNL1       -0.0029
      7 C         141.9122  141.1871  166.4369 C.ar    1  UNL1        0.0565
      8 N         142.4264  142.0283  167.5673 N.ar    1  UNL1       -0.3530
      9 C         141.8813  141.8385  168.9519 C.ar    1  UNL1        0.0628
     10 C         142.3956  142.6797  170.0823 C.ar    1  UNL1        0.0378
     11 C         141.8504  142.4898  171.4667 C.ar    1  UNL1        0.1037
     12 N         140.7911  141.4586  171.7208 N.ar    1  UNL1       -0.2062
     13 C         140.2768  140.6174  170.5904 C.ar    1  UNL1        0.2806
     14 O         139.2175  139.5863  170.8444 O.2     1  UNL1       -0.2651
     15 C         140.8220  140.8073  169.2059 C.ar    1  UNL1        0.0735
     16 C         140.3077  139.9661  168.0754 C.ar    1  UNL1        0.0077
     17 C         140.8528  140.1560  166.6910 C.ar    1  UNL1        0.0158
     18 H         143.1217  142.7051  167.4006 H       1  UNL1        0.1659
     19 C         140.3386  139.3148  165.5605 C.ar    1  UNL1        0.0014
     20 C         139.0375  139.6612  164.8994 C.ar    1  UNL1        0.0000
     21 C         138.5232  138.8201  163.7689 C.ar    1  UNL1        0.0000
     22 C         139.3101  137.6324  163.2996 C.ar    1  UNL1        0.0000
     23 C         140.6112  137.2860  163.9607 C.ar    1  UNL1        0.0000
     24 C         141.1255  138.1271  165.0911 C.ar    1  UNL1        0.0000
     25 C         144.0925  141.9467  160.8989 C.3     1  UNL1        0.0991
     26 C         143.2534  138.8838  157.7108 C.3     1  UNL1        0.0613
     27 C         142.9466  138.5754  159.1463 C.3     1  UNL1        0.0249
     28 C         143.2264  139.5965  160.2091 C.3     1  UNL1        0.0728
     29 N         143.8128  140.9257  159.8362 N.3     1  UNL1       -0.2689
     30 C         144.1196  141.2341  158.4007 C.3     1  UNL1        0.0728
     31 C         143.8399  140.2131  157.3379 C.3     1  UNL1        0.0249
     32 C         142.6188  135.7438  155.5193 C.ar    1  UNL1        0.1644
     33 N         142.4678  136.8396  154.5061 N.ar    1  UNL1       -0.1293
     34 N         142.6872  138.1492  155.2038 N.ar    1  UNL1       -0.1336
     35 C         142.9737  137.8628  156.6481 C.ar    1  UNL1        0.1396
     36 N         142.9314  136.3762  156.8430 N.ar    1  UNL1       -0.3245
     37 H         143.0824  135.8992  157.6909 H       1  UNL1        0.1686
     38 N         142.0685  129.8632  154.4622 N.pl3   1  UNL1       -0.3426
     39 C         142.2061  131.3334  154.7264 C.ar    1  UNL1        0.1254
     40 C         142.0874  132.3129  153.5965 C.ar    1  UNL1        0.0340
     41 C         142.2249  133.7830  153.8609 C.ar    1  UNL1        0.0075
     42 C         142.4812  134.2736  155.2550 C.ar    1  UNL1        0.0550
     43 C         142.5999  133.2942  156.3848 C.ar    1  UNL1        0.1033
     44 N         142.4623  131.8241  156.1206 N.ar    1  UNL1       -0.2295
     45 H         141.9003  129.5412  153.5472 H       1  UNL1        0.1437
     46 H         142.1464  129.2204  155.2037 H       1  UNL1        0.1437
@<TRIPOS>BOND
     1    38    39    1
     2    39    40   ar
     3    40    41   ar
     4    41    42   ar
     5    42    32    1
     6    32    33   ar
     7    33    34   ar
     8    34    35   ar
     9    35    26    1
    10    26    27    1
    11    27    28    1
    12    28    29    1
    13    29    25    1
    14    25     1    1
    15     1     2   ar
    16     2     3   ar
    17     3     4   ar
    18     4     7    1
    19     7     8   ar
    20     8     9   ar
    21     9    10   ar
    22    10    11   ar
    23    11    12   ar
    24    12    13   ar
    25    13    14    2
    26    13    15   ar
    27    15    16   ar
    28    16    17   ar
    29    17    19    1
    30    19    20   ar
    31    20    21   ar
    32    21    22   ar
    33    22    23   ar
    34    23    24   ar
    35     4     5   ar
    36     5     6   ar
    37    29    30    1
    38    30    31    1
    39    35    36   ar
    40    42    43   ar
    41    43    44   ar
    42    44    39   ar
    43    36    32   ar
    44    31    26    1
    45     6     1   ar
    46    17     7   ar
    47    24    19   ar
    48    15     9    1
    49    38    45    1
    50    38    46    1
    51     8    18    1
    52    36    37    1
@<TRIPOS>MOLECULE
*****
 46 52 0 0 0
SMALL
GASTEIGER

@<TRIPOS>ATOM
      1 C         142.8940  141.8448  161.9706 C.ar    1  UNL1       -0.0061
      2 C         143.7301  141.0297  162.9121 C.ar    1  UNL1       -0.0029
      3 C         143.2836  140.8293  164.3300 C.ar    1  UNL1        0.0011
      4 C         142.0009  141.4439  164.8063 C.ar    1  UNL1        0.0156
      5 C         141.1648  142.2590  163.8648 C.ar    1  UNL1        0.0011
      6 C         141.6113  142.4595  162.4470 C.ar    1  UNL1       -0.0029
      7 C         141.5544  141.2434  166.2243 C.ar    1  UNL1        0.0565
      8 N         142.1252  142.0965  167.3181 N.ar    1  UNL1       -0.3530
      9 C         141.6786  141.8960  168.7360 C.ar    1  UNL1        0.0628
     10 C         142.2495  142.7490  169.8298 C.ar    1  UNL1        0.0378
     11 C         141.8029  142.5485  171.2477 C.ar    1  UNL1        0.1037
     12 N         140.7856  141.4949  171.5717 N.ar    1  UNL1       -0.2062
     13 C         140.2147  140.6419  170.4779 C.ar    1  UNL1        0.2806
     14 O         139.1974  139.5884  170.8020 O.2     1  UNL1       -0.2651
     15 C         140.6613  140.8424  169.0601 C.ar    1  UNL1        0.0735
     16 C         140.0904  139.9894  167.9662 C.ar    1  UNL1        0.0077
     17 C         140.5370  140.1899  166.5483 C.ar    1  UNL1        0.0158
     18 H         142.7929  142.7879  167.1054 H       1  UNL1        0.1659
     19 C         139.9661  139.3368  165.4544 C.ar    1  UNL1        0.0014
     20 C         138.6827  139.7331  164.7868 C.ar    1  UNL1        0.0000
     21 C         138.1118  138.8801  163.6929 C.ar    1  UNL1        0.0000
     22 C         138.8244  137.6309  163.2667 C.ar    1  UNL1        0.0000
     23 C         140.1079  137.2347  163.9344 C.ar    1  UNL1        0.0000
     24 C         140.6787  138.0877  165.0282 C.ar    1  UNL1        0.0000
     25 C         143.3405  142.0453  160.5527 C.3     1  UNL1        0.0991
     26 C         140.9321  144.6475  157.7818 C.3     1  UNL1        0.0613
     27 C         141.4480  145.2052  159.0752 C.3     1  UNL1        0.0249
     28 C         142.2508  144.3377  159.9988 C.3     1  UNL1        0.0728
     29 N         142.5377  142.9127  159.6291 N.3     1  UNL1       -0.2689
     30 C         142.0218  142.3550  158.3357 C.3     1  UNL1        0.0728
     31 C         141.2190  143.2224  157.4121 C.3     1  UNL1        0.0249
     32 C         139.3216  147.4386  155.6182 C.ar    1  UNL1        0.1644
     33 N         138.4661  146.2609  155.2557 N.ar    1  UNL1       -0.1293
     34 N         138.9653  145.0720  156.0221 N.ar    1  UNL1       -0.1336
     35 C         140.1293  145.5149  156.8582 C.ar    1  UNL1        0.1396
     36 N         140.3494  146.9775  156.6086 N.ar    1  UNL1       -0.3245
     37 H         141.0463  147.5367  157.0221 H       1  UNL1        0.1686
     38 N         138.7349  153.0145  153.4814 N.pl3   1  UNL1       -0.3426
     39 C         138.8816  151.6205  154.0156 C.ar    1  UNL1        0.1254
     40 C         138.4373  151.3020  155.4125 C.ar    1  UNL1        0.0340
     41 C         138.5840  149.9080  155.9466 C.ar    1  UNL1        0.0075
     42 C         139.1749  148.8325  155.0840 C.ar    1  UNL1        0.0550
     43 C         139.6191  149.1510  153.6871 C.ar    1  UNL1        0.1033
     44 N         139.4725  150.5450  153.1529 N.ar    1  UNL1       -0.2295
     45 H         138.3471  153.7203  154.0476 H       1  UNL1        0.1437
     46 H         139.0265  153.2235  152.5646 H       1  UNL1        0.1437
@<TRIPOS>BOND
     1    38    39    1
     2    39    40   ar
     3    40    41   ar
     4    41    42   ar
     5    42    32    1
     6    32    33   ar
     7    33    34   ar
     8    34    35   ar
     9    35    26    1
    10    26    27    1
    11    27    28    1
    12    28    29    1
    13    29    25    1
    14    25     1    1
    15     1     2   ar
    16     2     3   ar
    17     3     4   ar
    18     4     7    1
    19     7     8   ar
    20     8     9   ar
    21     9    10   ar
    22    10    11   ar
    23    11    12   ar
    24    12    13   ar
    25    13    14    2
    26    13    15   ar
    27    15    16   ar
    28    16    17   ar
    29    17    19    1
    30    19    20   ar
    31    20    21   ar
    32    21    22   ar
    33    22    23   ar
    34    23    24   ar
    35     4     5   ar
    36     5     6   ar
    37    29    30    1
    38    30    31    1
    39    35    36   ar
    40    42    43   ar
    41    43    44   ar
    42    44    39   ar
    43    36    32   ar
    44    31    26    1
    45     6     1   ar
    46    17     7   ar
    47    24    19   ar
    48    15     9    1
    49    38    45    1
    50    38    46    1
    51     8    18    1
    52    36    37    1
@<TRIPOS>MOLECULE
*****
 46 52 0 0 0
SMALL
GASTEIGER

@<TRIPOS>ATOM
      1 C         139.3138  141.4926  161.8044 C.ar    1  UNL1       -0.0061
      2 C         140.1877  140.4147  162.3740 C.ar    1  UNL1       -0.0029
      3 C         140.8007  140.5859  163.7322 C.ar    1  UNL1        0.0011
      4 C         140.5399  141.8349  164.5209 C.ar    1  UNL1        0.0156
      5 C         139.6660  142.9127  163.9513 C.ar    1  UNL1        0.0011
      6 C         139.0529  142.7416  162.5930 C.ar    1  UNL1       -0.0029
      7 C         141.1530  142.0060  165.8792 C.ar    1  UNL1        0.0565
      8 N         140.2865  141.9698  167.1031 N.ar    1  UNL1       -0.3530
      9 C         140.8996  142.1409  168.4614 C.ar    1  UNL1        0.0628
     10 C         140.0332  142.1047  169.6853 C.ar    1  UNL1        0.0378
     11 C         140.6463  142.2758  171.0435 C.ar    1  UNL1        0.1037
     12 N         142.1258  142.4831  171.1778 N.ar    1  UNL1       -0.2062
     13 C         142.9922  142.5193  169.9539 C.ar    1  UNL1        0.2806
     14 O         144.4718  142.7266  170.0882 O.2     1  UNL1       -0.2651
     15 C         142.3791  142.3482  168.5957 C.ar    1  UNL1        0.0735
     16 C         143.2456  142.3843  167.3717 C.ar    1  UNL1        0.0077
     17 C         142.6325  142.2132  166.0135 C.ar    1  UNL1        0.0158
     18 H         139.3155  141.8338  167.0149 H       1  UNL1        0.1659
     19 C         143.4989  142.2494  164.7895 C.ar    1  UNL1        0.0014
     20 C         143.5568  143.4898  163.9480 C.ar    1  UNL1        0.0000
     21 C         144.4231  143.5260  162.7241 C.ar    1  UNL1        0.0000
     22 C         145.2317  142.3218  162.3417 C.ar    1  UNL1        0.0000
     23 C         145.1738  141.0815  163.1832 C.ar    1  UNL1        0.0000
     24 C         144.3075  141.0453  164.4071 C.ar    1  UNL1        0.0000
     25 C         138.7007  141.3215  160.4461 C.3     1  UNL1        0.0991
     26 C         139.5494  144.3207  157.2004 C.3     1  UNL1        0.0613
     27 C         140.3519  144.3396  158.4676 C.3     1  UNL1        0.0249
     28 C         140.0690  143.3398  159.5495 C.3     1  UNL1        0.0728
     29 N         138.9836  142.3212  159.3642 N.3     1  UNL1       -0.2689
     30 C         138.1811  142.3023  158.0971 C.3     1  UNL1        0.0728
     31 C         138.4639  143.3020  157.0152 C.3     1  UNL1        0.0249
     32 C         139.8664  147.3731  154.8241 C.ar    1  UNL1        0.1644
     33 N         140.6686  146.3446  154.0833 N.ar    1  UNL1       -0.1293
     34 N         140.6475  145.0760  154.8834 N.ar    1  UNL1       -0.1336
     35 C         139.8322  145.3204  156.1186 C.ar    1  UNL1        0.1396
     36 N         139.3495  146.7401  156.0819 N.ar    1  UNL1       -0.3245
     37 H         138.7914  147.1794  156.7637 H       1  UNL1        0.1686
     38 N         138.8957  153.0267  153.0645 N.pl3   1  UNL1       -0.3426
     39 C         139.1384  151.6133  153.5044 C.ar    1  UNL1        0.1254
     40 C         139.8085  150.6436  152.5766 C.ar    1  UNL1        0.0340
     41 C         140.0512  149.2303  153.0166 C.ar    1  UNL1        0.0075
     42 C         139.6237  148.7865  154.3842 C.ar    1  UNL1        0.0550
     43 C         138.9536  149.7562  155.3119 C.ar    1  UNL1        0.1033
     44 N         138.7109  151.1696  154.8720 N.ar    1  UNL1       -0.2295
     45 H         139.1762  153.3179  152.1669 H       1  UNL1        0.1437
     46 H         138.4559  153.6631  153.6735 H       1  UNL1        0.1437
@<TRIPOS>BOND
     1    38    39    1
     2    39    40   ar
     3    40    41   ar
     4    41    42   ar
     5    42    32    1
     6    32    33   ar
     7    33    34   ar
     8    34    35   ar
     9    35    26    1
    10    26    27    1
    11    27    28    1
    12    28    29    1
    13    29    25    1
    14    25     1    1
    15     1     2   ar
    16     2     3   ar
    17     3     4   ar
    18     4     7    1
    19     7     8   ar
    20     8     9   ar
    21     9    10   ar
    22    10    11   ar
    23    11    12   ar
    24    12    13   ar
    25    13    14    2
    26    13    15   ar
    27    15    16   ar
    28    16    17   ar
    29    17    19    1
    30    19    20   ar
    31    20    21   ar
    32    21    22   ar
    33    22    23   ar
    34    23    24   ar
    35     4     5   ar
    36     5     6   ar
    37    29    30    1
    38    30    31    1
    39    35    36   ar
    40    42    43   ar
    41    43    44   ar
    42    44    39   ar
    43    36    32   ar
    44    31    26    1
    45     6     1   ar
    46    17     7   ar
    47    24    19   ar
    48    15     9    1
    49    38    45    1
    50    38    46    1
    51     8    18    1
    52    36    37    1
@<TRIPOS>MOLECULE
*****
 46 52 0 0 0
SMALL
GASTEIGER

@<TRIPOS>ATOM
      1 C         139.3895  139.2406  162.2060 C.ar    1  UNL1       -0.0061
      2 C         138.2028  139.5681  163.0629 C.ar    1  UNL1       -0.0029
      3 C         138.4015  140.1906  164.4131 C.ar    1  UNL1        0.0011
      4 C         139.7871  140.4856  164.9063 C.ar    1  UNL1        0.0156
      5 C         140.9738  140.1581  164.0494 C.ar    1  UNL1        0.0011
      6 C         140.7751  139.5356  162.6993 C.ar    1  UNL1       -0.0029
      7 C         139.9858  141.1082  166.2565 C.ar    1  UNL1        0.0565
      8 N         140.1240  140.2381  167.4706 N.ar    1  UNL1       -0.3530
      9 C         140.3227  140.8607  168.8208 C.ar    1  UNL1        0.0628
     10 C         140.4609  139.9906  170.0348 C.ar    1  UNL1        0.0378
     11 C         140.6596  140.6132  171.3849 C.ar    1  UNL1        0.1037
     12 N         140.7201  142.1058  171.5210 N.ar    1  UNL1       -0.2062
     13 C         140.5819  142.9758  170.3070 C.ar    1  UNL1        0.2806
     14 O         140.6424  144.4684  170.4431 O.2     1  UNL1       -0.2651
     15 C         140.3832  142.3533  168.9569 C.ar    1  UNL1        0.0735
     16 C         140.2450  143.2233  167.7428 C.ar    1  UNL1        0.0077
     17 C         140.0463  142.6008  166.3926 C.ar    1  UNL1        0.0158
     18 H         140.0843  139.2585  167.3812 H       1  UNL1        0.1659
     19 C         139.9081  143.4708  165.1785 C.ar    1  UNL1        0.0014
     20 C         138.5456  143.8167  164.6549 C.ar    1  UNL1        0.0000
     21 C         138.4074  144.6867  163.4409 C.ar    1  UNL1        0.0000
     22 C         139.6315  145.2108  162.7504 C.ar    1  UNL1        0.0000
     23 C         140.9939  144.8649  163.2740 C.ar    1  UNL1        0.0000
     24 C         141.1322  143.9949  164.4881 C.ar    1  UNL1        0.0000
     25 C         139.1908  138.6181  160.8558 C.3     1  UNL1        0.0991
     26 C         139.2618  141.1864  157.1614 C.3     1  UNL1        0.0613
     27 C         140.4905  140.4311  157.5735 C.3     1  UNL1        0.0249
     28 C         140.4668  139.5749  158.8050 C.3     1  UNL1        0.0728
     29 N         139.2145  139.4742  159.6244 N.3     1  UNL1       -0.2689
     30 C         137.9858  140.2295  159.2123 C.3     1  UNL1        0.0728
     31 C         138.0095  141.0857  157.9809 C.3     1  UNL1        0.0249
     32 C         139.6802  143.8978  154.4158 C.ar    1  UNL1        0.1644
     33 N         138.9636  142.8223  153.6542 N.ar    1  UNL1       -0.1293
     34 N         138.7197  141.6757  154.5901 N.ar    1  UNL1       -0.1336
     35 C         139.2855  142.0426  155.9300 C.ar    1  UNL1        0.1396
     36 N         139.8792  143.4158  155.8223 N.ar    1  UNL1       -0.3245
     37 H         140.3217  143.9135  156.5473 H       1  UNL1        0.1686
     38 N         141.4417  149.1970  152.2211 N.pl3   1  UNL1       -0.3426
     39 C         141.0013  147.8722  152.7698 C.ar    1  UNL1        0.1254
     40 C         140.2451  147.8102  154.0638 C.ar    1  UNL1        0.0340
     41 C         139.8048  146.4854  154.6124 C.ar    1  UNL1        0.0075
     42 C         140.1206  145.2226  153.8671 C.ar    1  UNL1        0.0550
     43 C         140.8767  145.2845  152.5731 C.ar    1  UNL1        0.1033
     44 N         141.3171  146.6093  152.0245 N.ar    1  UNL1       -0.2295
     45 H         141.2344  150.0258  152.7103 H       1  UNL1        0.1437
     46 H         141.9380  149.2376  151.3718 H       1  UNL1        0.1437
@<TRIPOS>BOND
     1    38    39    1
     2    39    40   ar
     3    40    41   ar
     4    41    42   ar
     5    42    32    1
     6    32    33   ar
     7    33    34   ar
     8    34    35   ar
     9    35    26    1
    10    26    27    1
    11    27    28    1
    12    28    29    1
    13    29    25    1
    14    25     1    1
    15     1     2   ar
    16     2     3   ar
    17     3     4   ar
    18     4     7    1
    19     7     8   ar
    20     8     9   ar
    21     9    10   ar
    22    10    11   ar
    23    11    12   ar
    24    12    13   ar
    25    13    14    2
    26    13    15   ar
    27    15    16   ar
    28    16    17   ar
    29    17    19    1
    30    19    20   ar
    31    20    21   ar
    32    21    22   ar
    33    22    23   ar
    34    23    24   ar
    35     4     5   ar
    36     5     6   ar
    37    29    30    1
    38    30    31    1
    39    35    36   ar
    40    42    43   ar
    41    43    44   ar
    42    44    39   ar
    43    36    32   ar
    44    31    26    1
    45     6     1   ar
    46    17     7   ar
    47    24    19   ar
    48    15     9    1
    49    38    45    1
    50    38    46    1
    51     8    18    1
    52    36    37    1
@<TRIPOS>MOLECULE
*****
 46 52 0 0 0
SMALL
GASTEIGER

@<TRIPOS>ATOM
      1 C         140.2801  141.0186  161.2145 C.ar    1  UNL1       -0.0061
      2 C         140.5490  139.6676  161.8081 C.ar    1  UNL1       -0.0029
      3 C         140.6955  139.5166  163.2932 C.ar    1  UNL1        0.0011
      4 C         140.5732  140.7167  164.1848 C.ar    1  UNL1        0.0156
      5 C         140.3043  142.0677  163.5912 C.ar    1  UNL1        0.0011
      6 C         140.1578  142.2187  162.1061 C.ar    1  UNL1       -0.0029
      7 C         140.7197  140.5656  165.6700 C.ar    1  UNL1        0.0565
      8 N         139.5124  140.3003  166.5196 N.ar    1  UNL1       -0.3530
      9 C         139.6589  140.1492  168.0049 C.ar    1  UNL1        0.0628
     10 C         138.4516  139.8839  168.8545 C.ar    1  UNL1        0.0378
     11 C         138.5982  139.7329  170.3396 C.ar    1  UNL1        0.1037
     12 N         139.9521  139.8472  170.9751 N.ar    1  UNL1       -0.2062
     13 C         141.1594  140.1125  170.1255 C.ar    1  UNL1        0.2806
     14 O         142.5133  140.2268  170.7610 O.2     1  UNL1       -0.2651
     15 C         141.0128  140.2635  168.6404 C.ar    1  UNL1        0.0735
     16 C         142.2202  140.5289  167.7907 C.ar    1  UNL1        0.0077
     17 C         142.0736  140.6799  166.3055 C.ar    1  UNL1        0.0158
     18 H         138.6238  140.2253  166.1025 H       1  UNL1        0.1659
     19 C         143.2810  140.9453  165.4558 C.ar    1  UNL1        0.0014
     20 C         143.7519  142.3531  165.2406 C.ar    1  UNL1        0.0000
     21 C         144.9592  142.6185  164.3909 C.ar    1  UNL1        0.0000
     22 C         145.6956  141.4760  163.7565 C.ar    1  UNL1        0.0000
     23 C         145.2247  140.0682  163.9718 C.ar    1  UNL1        0.0000
     24 C         144.0174  139.8028  164.8214 C.ar    1  UNL1        0.0000
     25 C         140.1336  141.1697  159.7293 C.3     1  UNL1        0.0991
     26 C         141.3259  137.7993  156.9964 C.3     1  UNL1        0.0613
     27 C         142.2578  138.9545  157.2132 C.3     1  UNL1        0.0249
     28 C         141.8603  140.0780  158.1242 C.3     1  UNL1        0.0728
     29 N         140.5310  140.0462  158.8184 N.3     1  UNL1       -0.2689
     30 C         139.5991  138.8910  158.6016 C.3     1  UNL1        0.0728
     31 C         139.9965  137.7675  157.6906 C.3     1  UNL1        0.0249
     32 C         142.6220  134.5747  155.2680 C.ar    1  UNL1        0.1644
     33 N         142.0477  135.3192  154.0992 N.ar    1  UNL1       -0.1293
     34 N         141.4922  136.6177  154.6045 N.ar    1  UNL1       -0.1336
     35 C         141.7233  136.6758  156.0855 C.ar    1  UNL1        0.1396
     36 N         142.4215  135.4132  156.4955 N.ar    1  UNL1       -0.3245
     37 H         142.6994  135.1764  157.4098 H       1  UNL1        0.1686
     38 N         145.2585  129.1887  155.0680 N.pl3   1  UNL1       -0.3426
     39 C         144.5994  130.5352  155.1180 C.ar    1  UNL1        0.1254
     40 C         143.6369  130.9396  154.0408 C.ar    1  UNL1        0.0340
     41 C         142.9778  132.2861  154.0909 C.ar    1  UNL1        0.0075
     42 C         143.2812  133.2282  155.2180 C.ar    1  UNL1        0.0550
     43 C         144.2436  132.8238  156.2951 C.ar    1  UNL1        0.1033
     44 N         144.9027  131.4773  156.2451 N.ar    1  UNL1       -0.2295
     45 H         145.0594  128.5703  154.3282 H       1  UNL1        0.1437
     46 H         145.8902  128.9233  155.7749 H       1  UNL1        0.1437
@<TRIPOS>BOND
     1    38    39    1
     2    39    40   ar
     3    40    41   ar
     4    41    42   ar
     5    42    32    1
     6    32    33   ar
     7    33    34   ar
     8    34    35   ar
     9    35    26    1
    10    26    27    1
    11    27    28    1
    12    28    29    1
    13    29    25    1
    14    25     1    1
    15     1     2   ar
    16     2     3   ar
    17     3     4   ar
    18     4     7    1
    19     7     8   ar
    20     8     9   ar
    21     9    10   ar
    22    10    11   ar
    23    11    12   ar
    24    12    13   ar
    25    13    14    2
    26    13    15   ar
    27    15    16   ar
    28    16    17   ar
    29    17    19    1
    30    19    20   ar
    31    20    21   ar
    32    21    22   ar
    33    22    23   ar
    34    23    24   ar
    35     4     5   ar
    36     5     6   ar
    37    29    30    1
    38    30    31    1
    39    35    36   ar
    40    42    43   ar
    41    43    44   ar
    42    44    39   ar
    43    36    32   ar
    44    31    26    1
    45     6     1   ar
    46    17     7   ar
    47    24    19   ar
    48    15     9    1
    49    38    45    1
    50    38    46    1
    51     8    18    1
    52    36    37    1
@<TRIPOS>MOLECULE
*****
 46 52 0 0 0
SMALL
GASTEIGER

@<TRIPOS>ATOM
      1 C         143.3190  141.5894  161.7644 C.ar    1  UNL1       -0.0061
      2 C         143.8692  140.6479  162.7944 C.ar    1  UNL1       -0.0029
      3 C         143.4035  140.7377  164.2174 C.ar    1  UNL1        0.0011
      4 C         142.3877  141.7691  164.6105 C.ar    1  UNL1        0.0156
      5 C         141.8376  142.7106  163.5805 C.ar    1  UNL1        0.0011
      6 C         142.3032  142.6207  162.1575 C.ar    1  UNL1       -0.0029
      7 C         141.9221  141.8589  166.0336 C.ar    1  UNL1        0.0565
      8 N         142.9018  142.1738  167.1248 N.ar    1  UNL1       -0.3530
      9 C         142.4362  142.2637  168.5480 C.ar    1  UNL1        0.0628
     10 C         143.4159  142.5786  169.6392 C.ar    1  UNL1        0.0378
     11 C         142.9502  142.6684  171.0622 C.ar    1  UNL1        0.1037
     12 N         141.5048  142.4432  171.3940 N.ar    1  UNL1       -0.2062
     13 C         140.5251  142.1283  170.3028 C.ar    1  UNL1        0.2806
     14 O         139.0797  141.9032  170.6345 O.2     1  UNL1       -0.2651
     15 C         140.9907  142.0385  168.8797 C.ar    1  UNL1        0.0735
     16 C         140.0110  141.7235  167.7884 C.ar    1  UNL1        0.0077
     17 C         140.4767  141.6337  166.3654 C.ar    1  UNL1        0.0158
     18 H         143.8505  142.3216  166.9071 H       1  UNL1        0.1659
     19 C         139.4969  141.3188  165.2740 C.ar    1  UNL1        0.0014
     20 C         139.4554  139.9431  164.6775 C.ar    1  UNL1        0.0000
     21 C         138.4757  139.6281  163.5862 C.ar    1  UNL1        0.0000
     22 C         137.5375  140.6888  163.0915 C.ar    1  UNL1        0.0000
     23 C         137.5790  142.0644  163.6880 C.ar    1  UNL1        0.0000
     24 C         138.5587  142.3794  164.7793 C.ar    1  UNL1        0.0000
     25 C         143.7847  141.4996  160.3413 C.3     1  UNL1        0.0991
     26 C         142.7712  137.8806  157.8664 C.3     1  UNL1        0.0613
     27 C         143.2329  139.1413  157.1975 C.3     1  UNL1        0.0249
     28 C         143.5707  140.3476  158.0225 C.3     1  UNL1        0.0728
     29 N         143.4468  140.2932  159.5164 N.3     1  UNL1       -0.2689
     30 C         142.9851  139.0325  160.1853 C.3     1  UNL1        0.0728
     31 C         142.6473  137.8262  159.3603 C.3     1  UNL1        0.0249
     32 C         142.4798  134.4422  156.0893 C.ar    1  UNL1        0.1644
     33 N         141.3471  135.1935  155.4545 N.ar    1  UNL1       -0.1293
     34 N         141.3185  136.5729  156.0430 N.ar    1  UNL1       -0.1336
     35 C         142.4333  136.6742  157.0414 C.ar    1  UNL1        0.1396
     36 N         143.1510  135.3574  157.0701 N.ar    1  UNL1       -0.3245
     37 H         143.9265  135.1331  157.6336 H       1  UNL1        0.1686
     38 N         144.0494  128.7720  154.9121 N.pl3   1  UNL1       -0.3426
     39 C         143.6570  130.1896  155.2064 C.ar    1  UNL1        0.1254
     40 C         144.6629  131.1423  155.7815 C.ar    1  UNL1        0.0340
     41 C         144.2704  132.5598  156.0757 C.ar    1  UNL1        0.0075
     42 C         142.8722  133.0247  155.7950 C.ar    1  UNL1        0.0550
     43 C         141.8663  132.0720  155.2200 C.ar    1  UNL1        0.1033
     44 N         142.2588  130.6544  154.9257 N.ar    1  UNL1       -0.2295
     45 H         144.9671  128.4669  155.0963 H       1  UNL1        0.1437
     46 H         143.3892  128.1467  154.5347 H       1  UNL1        0.1437
@<TRIPOS>BOND
     1    38    39    1
     2    39    40   ar
     3    40    41   ar
     4    41    42   ar
     5    42    32    1
     6    32    33   ar
     7    33    34   ar
     8    34    35   ar
     9    35    26    1
    10    26    27    1
    11    27    28    1
    12    28    29    1
    13    29    25    1
    14    25     1    1
    15     1     2   ar
    16     2     3   ar
    17     3     4   ar
    18     4     7    1
    19     7     8   ar
    20     8     9   ar
    21     9    10   ar
    22    10    11   ar
    23    11    12   ar
    24    12    13   ar
    25    13    14    2
    26    13    15   ar
    27    15    16   ar
    28    16    17   ar
    29    17    19    1
    30    19    20   ar
    31    20    21   ar
    32    21    22   ar
    33    22    23   ar
    34    23    24   ar
    35     4     5   ar
    36     5     6   ar
    37    29    30    1
    38    30    31    1
    39    35    36   ar
    40    42    43   ar
    41    43    44   ar
    42    44    39   ar
    43    36    32   ar
    44    31    26    1
    45     6     1   ar
    46    17     7   ar
    47    24    19   ar
    48    15     9    1
    49    38    45    1
    50    38    46    1
    51     8    18    1
    52    36    37    1
