@<TRIPOS>MOLECULE
*****
 28 31 0 0 0
SMALL
GASTEIGER

@<TRIPOS>ATOM
      1 C         139.3291  141.8834  164.5400 C.ar    1  UNL1        0.0875
      2 C         139.1641  140.7285  163.5973 C.ar    1  UNL1        0.0400
      3 C         138.8181  140.9776  162.1591 C.ar    1  UNL1        0.1051
      4 N         138.6531  139.8227  161.2164 N.ar    1  UNL1       -0.2405
      5 C         138.3071  140.0719  159.7784 C.ar    1  UNL1        0.1195
      6 C         138.1261  141.4761  159.2830 C.ar    1  UNL1        0.1197
      7 N         138.2911  142.6311  160.2257 N.ar    1  UNL1       -0.2360
      8 C         138.6371  142.3819  161.6637 C.ar    1  UNL1        0.1519
      9 C         138.8021  143.5369  162.6065 C.ar    1  UNL1        0.2445
     10 N         139.1481  143.2877  164.0446 N.ar    1  UNL1       -0.2102
     11 C         140.3672  141.1358  168.8543 C.ar    1  UNL1        0.1318
     12 C         140.6596  142.4693  168.2327 C.ar    1  UNL1        0.0344
     13 C         140.3136  142.7185  166.7947 C.ar    1  UNL1        0.0059
     14 C         139.6752  141.6343  165.9782 C.ar    1  UNL1        0.0371
     15 C         139.3827  140.3008  166.5997 C.ar    1  UNL1        0.1018
     16 N         139.7287  140.0516  168.0378 N.ar    1  UNL1       -0.2291
     17 C         139.9923  139.8210  171.0636 C.3     1  UNL1        0.1136
     18 N         140.7132  140.8866  170.2925 N.pl3   1  UNL1       -0.2897
     19 C         141.7802  141.7031  170.9595 C.3     1  UNL1        0.1136
     20 O         138.6210  144.9411  162.1112 O.3     1  UNL1       -0.4591
     21 C         139.8095  145.8449  161.9679 C.3     1  UNL1        0.2084
     22 C         141.1898  145.3146  162.2199 C.3     1  UNL1        0.0596
     23 C         141.8477  145.5375  163.5494 C.3     1  UNL1        0.0065
     24 C         143.2280  145.0071  163.8014 C.3     1  UNL1        0.0172
     25 C         143.9504  144.2540  162.7240 C.3     1  UNL1        0.0686
     26 N         143.2925  144.0311  161.3945 N.3     1  UNL1       -0.2974
     27 C         141.9122  144.5614  161.1425 C.3     1  UNL1        0.0723
     28 H         143.2508  143.0219  161.2521 H       1  UNL1        0.1232
@<TRIPOS>BOND
     1    17    18    1
     2    18    19    1
     3    18    11    1
     4    11    12   ar
     5    12    13   ar
     6    13    14   ar
     7    14     1    1
     8     1     2   ar
     9     2     3   ar
    10     3     4   ar
    11     4     5   ar
    12     5     6   ar
    13     6     7   ar
    14     7     8   ar
    15     8     9   ar
    16     9    20    1
    17    20    21    1
    18    22    21    1
    19    22    23    1
    20    23    24    1
    21    24    25    1
    22    25    26    1
    23    26    27    1
    24     9    10   ar
    25    14    15   ar
    26    15    16   ar
    27    16    11   ar
    28    10     1   ar
    29     8     3   ar
    30    27    22    1
    31    26    28    1
@<TRIPOS>MOLECULE
*****
 28 31 0 0 0
SMALL
GASTEIGER

@<TRIPOS>ATOM
      1 C         140.7204  142.9121  164.0771 C.ar    1  UNL1        0.0875
      2 C         141.4980  143.7747  163.1279 C.ar    1  UNL1        0.0400
      3 C         140.9995  143.9897  161.7296 C.ar    1  UNL1        0.1051
      4 N         141.7772  144.8524  160.7804 N.ar    1  UNL1       -0.2405
      5 C         141.2786  145.0674  159.3821 C.ar    1  UNL1        0.1195
      6 C         140.0023  144.4197  158.9331 C.ar    1  UNL1        0.1197
      7 N         139.2246  143.5571  159.8822 N.ar    1  UNL1       -0.2360
      8 C         139.7232  143.3421  161.2805 C.ar    1  UNL1        0.1519
      9 C         138.9455  142.4794  162.2298 C.ar    1  UNL1        0.2445
     10 N         139.4441  142.2644  163.6280 N.ar    1  UNL1       -0.2102
     11 C         142.2161  142.2670  168.2719 C.ar    1  UNL1        0.1318
     12 C         140.7588  142.5239  168.0265 C.ar    1  UNL1        0.0344
     13 C         140.2602  142.7390  166.6282 C.ar    1  UNL1        0.0059
     14 C         141.2189  142.6970  165.4754 C.ar    1  UNL1        0.0371
     15 C         142.6762  142.4401  165.7208 C.ar    1  UNL1        0.1018
     16 N         143.1748  142.2250  167.1191 N.ar    1  UNL1       -0.2291
     17 C         142.9036  143.2236  170.5876 C.3     1  UNL1        0.1136
     18 N         142.7147  142.0519  169.6702 N.pl3   1  UNL1       -0.2897
     19 C         143.0243  140.6653  170.1511 C.3     1  UNL1        0.1136
     20 O         137.6692  141.8318  161.7807 O.3     1  UNL1       -0.4591
     21 C         137.6882  140.4335  161.2381 C.3     1  UNL1        0.2084
     22 C         138.5957  139.4054  161.8459 C.3     1  UNL1        0.0596
     23 C         138.3627  138.9365  163.2515 C.3     1  UNL1        0.0065
     24 C         139.2701  137.9084  163.8593 C.3     1  UNL1        0.0172
     25 C         140.4106  137.3492  163.0616 C.3     1  UNL1        0.0686
     26 N         140.6437  137.8181  161.6559 N.3     1  UNL1       -0.2974
     27 C         139.7362  138.8462  161.0480 C.3     1  UNL1        0.0723
     28 H         140.5956  136.9928  161.0584 H       1  UNL1        0.1232
@<TRIPOS>BOND
     1    17    18    1
     2    18    19    1
     3    18    11    1
     4    11    12   ar
     5    12    13   ar
     6    13    14   ar
     7    14     1    1
     8     1     2   ar
     9     2     3   ar
    10     3     4   ar
    11     4     5   ar
    12     5     6   ar
    13     6     7   ar
    14     7     8   ar
    15     8     9   ar
    16     9    20    1
    17    20    21    1
    18    22    21    1
    19    22    23    1
    20    23    24    1
    21    24    25    1
    22    25    26    1
    23    26    27    1
    24     9    10   ar
    25    14    15   ar
    26    15    16   ar
    27    16    11   ar
    28    10     1   ar
    29     8     3   ar
    30    27    22    1
    31    26    28    1
@<TRIPOS>MOLECULE
*****
 28 31 0 0 0
SMALL
GASTEIGER

@<TRIPOS>ATOM
      1 C         141.5166  139.2224  164.1451 C.ar    1  UNL1        0.0875
      2 C         142.7323  139.4991  163.3110 C.ar    1  UNL1        0.0400
      3 C         142.6803  139.3104  161.8238 C.ar    1  UNL1        0.1051
      4 N         143.8959  139.5871  160.9898 N.ar    1  UNL1       -0.2405
      5 C         143.8439  139.3983  159.5027 C.ar    1  UNL1        0.1195
      6 C         142.5763  138.9329  158.8495 C.ar    1  UNL1        0.1197
      7 N         141.3607  138.6562  159.6836 N.ar    1  UNL1       -0.2360
      8 C         141.4127  138.8449  161.1707 C.ar    1  UNL1        0.1519
      9 C         140.1970  138.5682  162.0048 C.ar    1  UNL1        0.2445
     10 N         140.2490  138.7570  163.4920 N.ar    1  UNL1       -0.2102
     11 C         141.6725  139.7886  168.6066 C.ar    1  UNL1        0.1318
     12 C         140.4207  140.1239  167.8513 C.ar    1  UNL1        0.0344
     13 C         140.3687  139.9352  166.3642 C.ar    1  UNL1        0.0059
     14 C         141.5686  139.4111  165.6323 C.ar    1  UNL1        0.0371
     15 C         142.8204  139.0758  166.3876 C.ar    1  UNL1        0.1018
     16 N         142.8724  139.2645  167.8747 N.ar    1  UNL1       -0.2291
     17 C         140.4683  140.2795  170.8558 C.3     1  UNL1        0.1136
     18 N         141.7245  139.9773  170.0938 N.pl3   1  UNL1       -0.2897
     19 C         143.0326  139.8638  170.8190 C.3     1  UNL1        0.1136
     20 O         138.9294  138.1028  161.3517 O.3     1  UNL1       -0.4591
     21 C         137.6738  138.9117  161.4897 C.3     1  UNL1        0.2084
     22 C         137.7566  140.3854  161.7568 C.3     1  UNL1        0.0596
     23 C         137.4477  140.9182  163.1245 C.3     1  UNL1        0.0065
     24 C         137.5305  142.3919  163.3916 C.3     1  UNL1        0.0172
     25 C         137.9221  143.3328  162.2910 C.3     1  UNL1        0.0686
     26 N         138.2311  142.8000  160.9232 N.3     1  UNL1       -0.2974
     27 C         138.1483  141.3263  160.6561 C.3     1  UNL1        0.0723
     28 H         139.1855  143.0857  160.7046 H       1  UNL1        0.1232
@<TRIPOS>BOND
     1    17    18    1
     2    18    19    1
     3    18    11    1
     4    11    12   ar
     5    12    13   ar
     6    13    14   ar
     7    14     1    1
     8     1     2   ar
     9     2     3   ar
    10     3     4   ar
    11     4     5   ar
    12     5     6   ar
    13     6     7   ar
    14     7     8   ar
    15     8     9   ar
    16     9    20    1
    17    20    21    1
    18    22    21    1
    19    22    23    1
    20    23    24    1
    21    24    25    1
    22    25    26    1
    23    26    27    1
    24     9    10   ar
    25    14    15   ar
    26    15    16   ar
    27    16    11   ar
    28    10     1   ar
    29     8     3   ar
    30    27    22    1
    31    26    28    1
@<TRIPOS>MOLECULE
*****
 28 31 0 0 0
SMALL
GASTEIGER

@<TRIPOS>ATOM
      1 C         140.1840  141.7897  164.9729 C.ar    1  UNL1        0.0875
      2 C         140.7785  142.3462  166.2326 C.ar    1  UNL1        0.0400
      3 C         140.4819  141.6976  167.5522 C.ar    1  UNL1        0.1051
      4 N         141.0765  142.2541  168.8119 N.ar    1  UNL1       -0.2405
      5 C         140.7798  141.6055  170.1314 C.ar    1  UNL1        0.1195
      6 C         139.8887  140.4004  170.1913 C.ar    1  UNL1        0.1197
      7 N         139.2941  139.8439  168.9317 N.ar    1  UNL1       -0.2360
      8 C         139.5908  140.4925  167.6121 C.ar    1  UNL1        0.1519
      9 C         138.9962  139.9360  166.3523 C.ar    1  UNL1        0.2445
     10 N         139.2928  140.5846  165.0328 N.ar    1  UNL1       -0.2102
     11 C         141.0738  143.7353  161.0140 C.ar    1  UNL1        0.1318
     12 C         141.0904  144.5524  162.2719 C.ar    1  UNL1        0.0344
     13 C         140.7938  143.9039  163.5915 C.ar    1  UNL1        0.0059
     14 C         140.4806  142.4383  163.6532 C.ar    1  UNL1        0.0371
     15 C         140.4640  141.6212  162.3954 C.ar    1  UNL1        0.1018
     16 N         140.7606  142.2697  161.0758 N.ar    1  UNL1       -0.2291
     17 C         142.4858  143.8638  158.8369 C.3     1  UNL1        0.1136
     18 N         141.3704  144.3839  159.6944 N.pl3   1  UNL1       -0.2897
     19 C         140.5516  145.5527  159.2323 C.3     1  UNL1        0.1136
     20 O         138.1051  138.7309  166.4122 O.3     1  UNL1       -0.4591
     21 C         138.5077  137.4650  165.7156 C.3     1  UNL1        0.2084
     22 C         139.3888  137.5238  164.5031 C.3     1  UNL1        0.0596
     23 C         140.8805  137.4950  164.6578 C.3     1  UNL1        0.0065
     24 C         141.7615  137.5538  163.4453 C.3     1  UNL1        0.0172
     25 C         141.1509  137.6413  162.0780 C.3     1  UNL1        0.0686
     26 N         139.6592  137.6701  161.9233 N.3     1  UNL1       -0.2974
     27 C         138.7781  137.6113  163.1358 C.3     1  UNL1        0.0723
     28 H         139.4084  136.8731  161.3382 H       1  UNL1        0.1232
@<TRIPOS>BOND
     1    17    18    1
     2    18    19    1
     3    18    11    1
     4    11    12   ar
     5    12    13   ar
     6    13    14   ar
     7    14     1    1
     8     1     2   ar
     9     2     3   ar
    10     3     4   ar
    11     4     5   ar
    12     5     6   ar
    13     6     7   ar
    14     7     8   ar
    15     8     9   ar
    16     9    20    1
    17    20    21    1
    18    22    21    1
    19    22    23    1
    20    23    24    1
    21    24    25    1
    22    25    26    1
    23    26    27    1
    24     9    10   ar
    25    14    15   ar
    26    15    16   ar
    27    16    11   ar
    28    10     1   ar
    29     8     3   ar
    30    27    22    1
    31    26    28    1
@<TRIPOS>MOLECULE
*****
 28 31 0 0 0
SMALL
GASTEIGER

@<TRIPOS>ATOM
      1 C         142.3457  140.0288  167.0368 C.ar    1  UNL1        0.0875
      2 C         141.4692  141.1930  167.3923 C.ar    1  UNL1        0.0400
      3 C         141.1331  141.4679  168.8281 C.ar    1  UNL1        0.1051
      4 N         140.2567  142.6321  169.1836 N.ar    1  UNL1       -0.2405
      5 C         139.9206  142.9069  170.6193 C.ar    1  UNL1        0.1195
      6 C         140.4609  142.0176  171.6996 C.ar    1  UNL1        0.1197
      7 N         141.3373  140.8533  171.3442 N.ar    1  UNL1       -0.2360
      8 C         141.6734  140.5785  169.9084 C.ar    1  UNL1        0.1519
      9 C         142.5499  139.4142  169.5529 C.ar    1  UNL1        0.2445
     10 N         142.8860  139.1394  168.1171 N.ar    1  UNL1       -0.2102
     11 C         143.3540  139.2041  162.7295 C.ar    1  UNL1        0.1318
     12 C         144.4101  139.0693  163.7861 C.ar    1  UNL1        0.0344
     13 C         144.0740  139.3442  165.2218 C.ar    1  UNL1        0.0059
     14 C         142.6818  139.7539  165.6010 C.ar    1  UNL1        0.0371
     15 C         141.6257  139.8887  164.5444 C.ar    1  UNL1        0.1018
     16 N         141.9617  139.6138  163.1086 N.ar    1  UNL1       -0.2291
     17 C         143.8498  137.5156  160.8181 C.3     1  UNL1        0.1136
     18 N         143.6901  138.9292  161.2936 N.pl3   1  UNL1       -0.2897
     19 C         143.8665  140.0680  160.3334 C.3     1  UNL1        0.1136
     20 O         143.0902  138.5248  170.6332 O.3     1  UNL1       -0.4591
     21 C         143.8006  137.2538  170.2728 C.3     1  UNL1        0.2084
     22 C         144.6657  136.5649  171.2862 C.3     1  UNL1        0.0596
     23 C         144.5079  135.0935  171.5308 C.3     1  UNL1        0.0065
     24 C         145.3730  134.4046  172.5442 C.3     1  UNL1        0.0172
     25 C         146.3960  135.1871  173.3130 C.3     1  UNL1        0.0686
     26 N         146.5539  136.6586  173.0684 N.3     1  UNL1       -0.2974
     27 C         145.6887  137.3475  172.0551 C.3     1  UNL1        0.0723
     28 H         147.5208  136.8071  172.7797 H       1  UNL1        0.1232
@<TRIPOS>BOND
     1    17    18    1
     2    18    19    1
     3    18    11    1
     4    11    12   ar
     5    12    13   ar
     6    13    14   ar
     7    14     1    1
     8     1     2   ar
     9     2     3   ar
    10     3     4   ar
    11     4     5   ar
    12     5     6   ar
    13     6     7   ar
    14     7     8   ar
    15     8     9   ar
    16     9    20    1
    17    20    21    1
    18    22    21    1
    19    22    23    1
    20    23    24    1
    21    24    25    1
    22    25    26    1
    23    26    27    1
    24     9    10   ar
    25    14    15   ar
    26    15    16   ar
    27    16    11   ar
    28    10     1   ar
    29     8     3   ar
    30    27    22    1
    31    26    28    1
@<TRIPOS>MOLECULE
*****
 28 31 0 0 0
SMALL
GASTEIGER

@<TRIPOS>ATOM
      1 C         142.1724  142.0798  164.7527 C.ar    1  UNL1        0.0875
      2 C         143.1165  142.4764  165.8487 C.ar    1  UNL1        0.0400
      3 C         142.7564  142.2126  167.2808 C.ar    1  UNL1        0.1051
      4 N         143.7005  142.6092  168.3768 N.ar    1  UNL1       -0.2405
      5 C         143.3404  142.3454  169.8088 C.ar    1  UNL1        0.1195
      6 C         142.0362  141.6849  170.1448 C.ar    1  UNL1        0.1197
      7 N         141.0921  141.2883  169.0488 N.ar    1  UNL1       -0.2360
      8 C         141.4522  141.5521  167.6168 C.ar    1  UNL1        0.1519
      9 C         140.5081  141.1555  166.5207 C.ar    1  UNL1        0.2445
     10 N         140.8682  141.4193  165.0887 N.ar    1  UNL1       -0.2102
     11 C         143.2526  142.8713  160.4566 C.ar    1  UNL1        0.1318
     12 C         142.1678  141.8899  160.7886 C.ar    1  UNL1        0.0344
     13 C         141.8078  141.6261  162.2206 C.ar    1  UNL1        0.0059
     14 C         142.5324  142.3436  163.3206 C.ar    1  UNL1        0.0371
     15 C         143.6171  143.3250  162.9886 C.ar    1  UNL1        0.1018
     16 N         143.9772  143.5888  161.5566 N.ar    1  UNL1       -0.2291
     17 C         144.8658  142.5481  158.4459 C.3     1  UNL1        0.1136
     18 N         143.6126  143.1351  159.0245 N.pl3   1  UNL1       -0.2897
     19 C         142.7194  143.9860  158.1711 C.3     1  UNL1        0.1136
     20 O         139.2039  140.4950  166.8567 O.3     1  UNL1       -0.4591
     21 C         138.9414  139.0856  166.4156 C.3     1  UNL1        0.2084
     22 C         139.3237  138.6491  165.0323 C.3     1  UNL1        0.0596
     23 C         140.5065  137.7493  164.8298 C.3     1  UNL1        0.0065
     24 C         140.8888  137.3128  163.4466 C.3     1  UNL1        0.0172
     25 C         140.0882  137.7762  162.2658 C.3     1  UNL1        0.0686
     26 N         138.9052  138.6761  162.4683 N.3     1  UNL1       -0.2974
     27 C         138.5230  139.1125  163.8515 C.3     1  UNL1        0.0723
     28 H         138.0967  138.1917  162.0783 H       1  UNL1        0.1232
@<TRIPOS>BOND
     1    17    18    1
     2    18    19    1
     3    18    11    1
     4    11    12   ar
     5    12    13   ar
     6    13    14   ar
     7    14     1    1
     8     1     2   ar
     9     2     3   ar
    10     3     4   ar
    11     4     5   ar
    12     5     6   ar
    13     6     7   ar
    14     7     8   ar
    15     8     9   ar
    16     9    20    1
    17    20    21    1
    18    22    21    1
    19    22    23    1
    20    23    24    1
    21    24    25    1
    22    25    26    1
    23    26    27    1
    24     9    10   ar
    25    14    15   ar
    26    15    16   ar
    27    16    11   ar
    28    10     1   ar
    29     8     3   ar
    30    27    22    1
    31    26    28    1
@<TRIPOS>MOLECULE
*****
 28 31 0 0 0
SMALL
GASTEIGER

@<TRIPOS>ATOM
      1 C         142.5946  142.9826  160.3201 C.ar    1  UNL1        0.0875
      2 C         141.1006  142.8958  160.4213 C.ar    1  UNL1        0.0400
      3 C         140.3880  143.5410  161.5728 C.ar    1  UNL1        0.1051
      4 N         138.8940  143.4542  161.6740 N.ar    1  UNL1       -0.2405
      5 C         138.1815  144.0994  162.8255 C.ar    1  UNL1        0.1195
      6 C         138.9631  144.8315  163.8758 C.ar    1  UNL1        0.1197
      7 N         140.4571  144.9184  163.7746 N.ar    1  UNL1       -0.2360
      8 C         141.1696  144.2731  162.6231 C.ar    1  UNL1        0.1519
      9 C         142.6637  144.3600  162.5219 C.ar    1  UNL1        0.2445
     10 N         143.3762  143.7147  161.3704 N.ar    1  UNL1       -0.2102
     11 C         144.7322  141.0468  156.8656 C.ar    1  UNL1        0.1318
     12 C         144.3244  142.4879  156.7827 C.ar    1  UNL1        0.0344
     13 C         143.6118  143.1332  157.9342 C.ar    1  UNL1        0.0059
     14 C         143.3072  142.3374  159.1686 C.ar    1  UNL1        0.0371
     15 C         143.7150  140.8963  159.2515 C.ar    1  UNL1        0.1018
     16 N         144.4276  140.2510  158.1000 N.ar    1  UNL1       -0.2291
     17 C         146.6196  141.0859  155.0806 C.3     1  UNL1        0.1136
     18 N         145.4448  140.4016  155.7141 N.pl3   1  UNL1       -0.2897
     19 C         144.9824  139.0719  155.1961 C.3     1  UNL1        0.1136
     20 O         143.4453  145.0921  163.5723 O.3     1  UNL1       -0.4591
     21 C         144.1726  144.3252  164.6366 C.3     1  UNL1        0.2084
     22 C         144.1177  142.8263  164.6512 C.3     1  UNL1        0.0596
     23 C         145.2311  142.0290  164.0393 C.3     1  UNL1        0.0065
     24 C         145.1762  140.5301  164.0539 C.3     1  UNL1        0.0172
     25 C         144.0079  139.8285  164.6804 C.3     1  UNL1        0.0686
     26 N         142.8943  140.6258  165.2924 N.3     1  UNL1       -0.2974
     27 C         142.9493  142.1247  165.2778 C.3     1  UNL1        0.0723
     28 H         142.8327  140.3429  166.2705 H       1  UNL1        0.1232
@<TRIPOS>BOND
     1    17    18    1
     2    18    19    1
     3    18    11    1
     4    11    12   ar
     5    12    13   ar
     6    13    14   ar
     7    14     1    1
     8     1     2   ar
     9     2     3   ar
    10     3     4   ar
    11     4     5   ar
    12     5     6   ar
    13     6     7   ar
    14     7     8   ar
    15     8     9   ar
    16     9    20    1
    17    20    21    1
    18    22    21    1
    19    22    23    1
    20    23    24    1
    21    24    25    1
    22    25    26    1
    23    26    27    1
    24     9    10   ar
    25    14    15   ar
    26    15    16   ar
    27    16    11   ar
    28    10     1   ar
    29     8     3   ar
    30    27    22    1
    31    26    28    1
@<TRIPOS>MOLECULE
*****
 28 31 0 0 0
SMALL
GASTEIGER

@<TRIPOS>ATOM
      1 C         139.9504  143.4349  160.0323 C.ar    1  UNL1        0.0875
      2 C         141.4432  143.3216  160.1257 C.ar    1  UNL1        0.0400
      3 C         142.1590  143.8272  161.3432 C.ar    1  UNL1        0.1051
      4 N         143.6517  143.7138  161.4366 N.ar    1  UNL1       -0.2405
      5 C         144.3675  144.2195  162.6540 C.ar    1  UNL1        0.1195
      6 C         143.5905  144.8385  163.7779 C.ar    1  UNL1        0.1197
      7 N         142.0977  144.9518  163.6844 N.ar    1  UNL1       -0.2360
      8 C         141.3820  144.4462  162.4670 C.ar    1  UNL1        0.1519
      9 C         139.8891  144.5596  162.3735 C.ar    1  UNL1        0.2445
     10 N         139.1734  144.0539  161.1561 N.ar    1  UNL1       -0.2102
     11 C         137.8030  141.9180  156.3802 C.ar    1  UNL1        0.1318
     12 C         138.6176  143.1752  156.3032 C.ar    1  UNL1        0.0344
     13 C         139.3334  143.6808  157.5205 C.ar    1  UNL1        0.0059
     14 C         139.2346  142.9293  158.8149 C.ar    1  UNL1        0.0371
     15 C         138.4200  141.6721  158.8919 C.ar    1  UNL1        0.1018
     16 N         137.7042  141.1664  157.6746 N.ar    1  UNL1       -0.2291
     17 C         137.0908  139.9463  154.8455 C.3     1  UNL1        0.1136
     18 N         137.0872  141.4123  155.1628 N.pl3   1  UNL1       -0.2897
     19 C         136.3678  142.3728  154.2628 C.3     1  UNL1        0.1136
     20 O         139.1121  145.1786  163.4974 O.3     1  UNL1       -0.4591
     21 C         138.0338  144.3945  164.1847 C.3     1  UNL1        0.2084
     22 C         138.1320  142.9002  164.2708 C.3     1  UNL1        0.0596
     23 C         139.0881  142.2658  165.2369 C.3     1  UNL1        0.0065
     24 C         139.1862  140.7715  165.3230 C.3     1  UNL1        0.0172
     25 C         138.3282  139.9116  164.4431 C.3     1  UNL1        0.0686
     26 N         137.3720  140.5460  163.4769 N.3     1  UNL1       -0.2974
     27 C         137.2739  142.0403  163.3908 C.3     1  UNL1        0.0723
     28 H         136.4415  140.2031  163.7155 H       1  UNL1        0.1232
@<TRIPOS>BOND
     1    17    18    1
     2    18    19    1
     3    18    11    1
     4    11    12   ar
     5    12    13   ar
     6    13    14   ar
     7    14     1    1
     8     1     2   ar
     9     2     3   ar
    10     3     4   ar
    11     4     5   ar
    12     5     6   ar
    13     6     7   ar
    14     7     8   ar
    15     8     9   ar
    16     9    20    1
    17    20    21    1
    18    22    21    1
    19    22    23    1
    20    23    24    1
    21    24    25    1
    22    25    26    1
    23    26    27    1
    24     9    10   ar
    25    14    15   ar
    26    15    16   ar
    27    16    11   ar
    28    10     1   ar
    29     8     3   ar
    30    27    22    1
    31    26    28    1
@<TRIPOS>MOLECULE
*****
 28 31 0 0 0
SMALL
GASTEIGER

@<TRIPOS>ATOM
      1 C         139.7321  142.2562  164.0764 C.ar    1  UNL1        0.0875
      2 C         140.4235  143.4227  163.4353 C.ar    1  UNL1        0.0400
      3 C         140.2737  143.6666  161.9628 C.ar    1  UNL1        0.1051
      4 N         140.9651  144.8331  161.3216 N.ar    1  UNL1       -0.2405
      5 C         140.8152  145.0770  159.8492 C.ar    1  UNL1        0.1195
      6 C         139.9740  144.1543  159.0179 C.ar    1  UNL1        0.1197
      7 N         139.2826  142.9877  159.6591 N.ar    1  UNL1       -0.2360
      8 C         139.4325  142.7439  161.1315 C.ar    1  UNL1        0.1519
      9 C         138.7411  141.5773  161.7727 C.ar    1  UNL1        0.2445
     10 N         138.8909  141.3335  163.2452 N.ar    1  UNL1       -0.2102
     11 C         140.1815  141.5244  168.4937 C.ar    1  UNL1        0.1318
     12 C         140.4999  142.8736  167.9208 C.ar    1  UNL1        0.0344
     13 C         140.3501  143.1176  166.4484 C.ar    1  UNL1        0.0059
     14 C         139.8819  142.0123  165.5489 C.ar    1  UNL1        0.0371
     15 C         139.5636  140.6630  166.1218 C.ar    1  UNL1        0.1018
     16 N         139.7134  140.4191  167.5942 N.ar    1  UNL1       -0.2291
     17 C         140.2991  142.4339  170.9246 C.3     1  UNL1        0.1136
     18 N         140.3313  141.2805  169.9662 N.pl3   1  UNL1       -0.2897
     19 C         140.5134  139.8831  170.4802 C.3     1  UNL1        0.1136
     20 O         137.8999  140.6546  160.9415 O.3     1  UNL1       -0.4591
     21 C         138.1581  139.1772  160.9667 C.3     1  UNL1        0.2084
     22 C         139.5668  138.6622  160.9820 C.3     1  UNL1        0.0596
     23 C         140.4894  138.9673  159.8394 C.3     1  UNL1        0.0065
     24 C         141.8981  138.4523  159.8547 C.3     1  UNL1        0.0172
     25 C         142.3843  137.6322  161.0128 C.3     1  UNL1        0.0686
     26 N         141.4617  137.3272  162.1556 N.3     1  UNL1       -0.2974
     27 C         140.0530  137.8422  162.1402 C.3     1  UNL1        0.0723
     28 H         141.9021  137.6993  162.9970 H       1  UNL1        0.1232
@<TRIPOS>BOND
     1    17    18    1
     2    18    19    1
     3    18    11    1
     4    11    12   ar
     5    12    13   ar
     6    13    14   ar
     7    14     1    1
     8     1     2   ar
     9     2     3   ar
    10     3     4   ar
    11     4     5   ar
    12     5     6   ar
    13     6     7   ar
    14     7     8   ar
    15     8     9   ar
    16     9    20    1
    17    20    21    1
    18    22    21    1
    19    22    23    1
    20    23    24    1
    21    24    25    1
    22    25    26    1
    23    26    27    1
    24     9    10   ar
    25    14    15   ar
    26    15    16   ar
    27    16    11   ar
    28    10     1   ar
    29     8     3   ar
    30    27    22    1
    31    26    28    1
