@<TRIPOS>MOLECULE
*****
 40 43 0 0 0
SMALL
GASTEIGER

@<TRIPOS>ATOM
      1 N         140.9532  138.5452  158.8249 N.am    1  UNL1       -0.2531
      2 C         141.5171  138.8847  160.1728 C.2     1  UNL1        0.3135
      3 O         142.8958  139.4650  160.2844 O.2     1  UNL1       -0.2518
      4 N         140.7023  138.6440  161.4090 N.am    1  UNL1       -0.2282
      5 C         139.3236  138.0638  161.2974 C.3     1  UNL1        0.1015
      6 C         138.5089  137.8231  162.5336 C.3     1  UNL1        0.0268
      7 C         139.0729  138.1627  163.8814 C.3     1  UNL1        0.0310
      8 C         140.4515  138.7429  163.9930 C.ar    1  UNL1        0.0096
      9 C         141.0155  139.0824  165.3409 C.ar    1  UNL1       -0.0025
     10 C         142.3942  139.6627  165.4525 C.ar    1  UNL1        0.0184
     11 CA        143.2090  139.9034  164.2163 C.ar    1  UNL1        0.1224
     12 N         142.6450  139.5638  162.8684 N.ar    1  UNL1       -0.2275
     13 C         141.2663  138.9836  162.7568 C.ar    1  UNL1        0.1345
     14 H         140.0483  138.1643  158.7517 H       1  UNL1        0.1578
     15 C         143.4654  137.9405  155.8128 C.ar    1  UNL1        0.1525
     16 C         142.6507  137.6998  157.0490 C.ar    1  UNL1        0.0721
     17 C         141.7679  138.7859  157.5887 C.ar    1  UNL1        0.1384
     18 N         141.6999  140.1126  156.8922 N.ar    1  UNL1       -0.2281
     19 C         142.5147  140.3532  155.6559 C.ar    1  UNL1        0.1136
     20 C         143.3974  139.2672  155.1162 C.ar    1  UNL1        0.1215
     21 C         144.2121  139.5079  153.8800 C.1     1  UNL1        0.1051
     22 N         145.0269  139.7486  152.6437 N.1     1  UNL1       -0.1907
     23 O         144.3481  136.8544  155.2732 O.3     1  UNL1       -0.4719
     24 C         144.0305  135.4171  155.5616 C.3     1  UNL1        0.2373
     25 C         142.8477  134.7648  154.9092 C.3     1  UNL1        0.1894
     26 C         142.4139  132.4573  156.0215 C.3     1  UNL1        0.1743
     27 O         141.9618  133.8518  155.7039 O.3     1  UNL1       -0.3471
     28 C         144.5877  140.4836  164.3279 C.2     1  UNL1        0.2529
     29 O         145.3910  140.7520  163.0898 O.2     1  UNL1       -0.2815
     30 C         142.9581  140.0022  166.8003 C.3     1  UNL1        0.1217
     31 N         142.1279  140.7640  167.7905 N.am    1  UNL1       -0.2761
     32 C         141.5356  142.0887  167.4108 C.2     1  UNL1        0.2422
     33 O         141.7736  142.6517  166.0409 O.2     1  UNL1       -0.2733
     34 C         140.7054  142.8506  168.4009 C.3     1  UNL1        0.1587
     35 N         140.4675  142.2876  169.7708 N.3     1  UNL1       -0.2624
     36 C         139.6373  143.0494  170.7609 C.3     1  UNL1        0.0901
     37 C         141.0598  140.9628  170.1505 C.3     1  UNL1        0.0909
     38 C         141.8900  140.2010  169.1603 C.3     1  UNL1        0.0754
     39 C         142.7402  139.1124  168.5753 C.3     1  UNL1        0.0213
     40 C         141.9474  139.2600  170.3270 C.3     1  UNL1        0.0213
@<TRIPOS>BOND
     1    26    27    1
     2    27    25    1
     3    25    24    1
     4    24    23    1
     5    23    15    1
     6    15    16   ar
     7    16    17   ar
     8    17     1    1
     9     1     2   am
    10     2     3    2
    11     2     4   am
    12     4     5    1
    13     5     6    1
    14     6     7    1
    15     7     8    1
    16     8     9   ar
    17     9    10   ar
    18    10    30    1
    19    30    31    1
    20    31    32   am
    21    32    33    2
    22    32    34    1
    23    34    35    1
    24    35    36    1
    25    35    37    1
    26    37    38    1
    27    38    39    1
    28    38    40    1
    29    10    11   ar
    30    11    28    1
    31    28    29    2
    32    11    12   ar
    33    12    13   ar
    34    17    18   ar
    35    18    19   ar
    36    19    20   ar
    37    20    21    1
    38    21    22    3
    39    20    15   ar
    40    13     4    1
    41    13     8   ar
    42    38    31    1
    43     1    14    1
@<TRIPOS>MOLECULE
*****
 40 43 0 0 0
SMALL
GASTEIGER

@<TRIPOS>ATOM
      1 N         138.1763  142.2285  158.8869 N.am    1  UNL1       -0.2531
      2 C         138.5080  141.4920  160.1509 C.2     1  UNL1        0.3135
      3 O         138.9005  140.0454  160.0949 O.2     1  UNL1       -0.2518
      4 N         138.4473  142.2022  161.4707 N.am    1  UNL1       -0.2282
      5 C         138.0548  143.6488  161.5266 C.3     1  UNL1        0.1015
      6 C         137.9941  144.3590  162.8465 C.3     1  UNL1        0.0268
      7 C         138.3259  143.6224  164.1104 C.3     1  UNL1        0.0310
      8 C         138.7183  142.1758  164.0545 C.ar    1  UNL1        0.0096
      9 C         139.0501  141.4393  165.3184 C.ar    1  UNL1       -0.0025
     10 C         139.4426  139.9927  165.2625 C.ar    1  UNL1        0.0184
     11 CA        139.5033  139.2825  163.9426 C.ar    1  UNL1        0.1224
     12 N         139.1716  140.0190  162.6787 N.ar    1  UNL1       -0.2275
     13 C         138.7791  141.4657  162.7347 C.ar    1  UNL1        0.1345
     14 H         137.9187  143.1780  158.9236 H       1  UNL1        0.1578
     15 C         137.0334  140.3464  155.5852 C.ar    1  UNL1        0.1525
     16 C         136.9727  141.0565  156.9050 C.ar    1  UNL1        0.0721
     17 C         138.2370  141.5184  157.5671 C.ar    1  UNL1        0.1384
     18 N         139.5620  141.2701  156.9093 N.ar    1  UNL1       -0.2281
     19 C         139.6227  140.5599  155.5894 C.ar    1  UNL1        0.1136
     20 C         138.3584  140.0981  154.9274 C.ar    1  UNL1        0.1215
     21 C         138.4191  139.3880  153.6076 C.1     1  UNL1        0.1051
     22 N         138.4798  138.6778  152.2877 N.1     1  UNL1       -0.1907
     23 O         135.7691  139.8845  154.9232 O.3     1  UNL1       -0.4719
     24 C         134.4766  140.5949  155.1966 C.3     1  UNL1        0.2373
     25 C         133.4658  139.9837  156.1212 C.3     1  UNL1        0.1894
     26 C         132.9739  138.5062  158.2008 C.3     1  UNL1        0.1743
     27 O         133.8772  138.8959  157.0686 O.3     1  UNL1       -0.3471
     28 C         139.8958  137.8359  163.8867 C.2     1  UNL1        0.2529
     29 O         140.5457  137.2822  162.6534 O.2     1  UNL1       -0.2815
     30 C         139.7743  139.2562  166.5264 C.3     1  UNL1        0.1217
     31 N         140.4287  139.9793  167.6661 N.am    1  UNL1       -0.2761
     32 C         141.8425  140.4629  167.5345 C.2     1  UNL1        0.2422
     33 O         142.6018  140.2235  166.2633 O.2     1  UNL1       -0.2733
     34 C         142.4969  141.1860  168.6742 C.3     1  UNL1        0.1587
     35 N         141.7375  141.4255  169.9455 N.3     1  UNL1       -0.2624
     36 C         142.3919  142.1485  171.0851 C.3     1  UNL1        0.0901
     37 C         140.3237  140.9418  170.0770 C.3     1  UNL1        0.0909
     38 C         139.6693  140.2187  168.9373 C.3     1  UNL1        0.0754
     39 C         138.6253  139.4910  168.1433 C.3     1  UNL1        0.0213
     40 C         138.5474  140.2054  169.9328 C.3     1  UNL1        0.0213
@<TRIPOS>BOND
     1    26    27    1
     2    27    25    1
     3    25    24    1
     4    24    23    1
     5    23    15    1
     6    15    16   ar
     7    16    17   ar
     8    17     1    1
     9     1     2   am
    10     2     3    2
    11     2     4   am
    12     4     5    1
    13     5     6    1
    14     6     7    1
    15     7     8    1
    16     8     9   ar
    17     9    10   ar
    18    10    30    1
    19    30    31    1
    20    31    32   am
    21    32    33    2
    22    32    34    1
    23    34    35    1
    24    35    36    1
    25    35    37    1
    26    37    38    1
    27    38    39    1
    28    38    40    1
    29    10    11   ar
    30    11    28    1
    31    28    29    2
    32    11    12   ar
    33    12    13   ar
    34    17    18   ar
    35    18    19   ar
    36    19    20   ar
    37    20    21    1
    38    21    22    3
    39    20    15   ar
    40    13     4    1
    41    13     8   ar
    42    38    31    1
    43     1    14    1
@<TRIPOS>MOLECULE
*****
 40 43 0 0 0
SMALL
GASTEIGER

@<TRIPOS>ATOM
      1 N         139.0596  140.5952  158.5922 N.am    1  UNL1       -0.2531
      2 C         139.3423  140.1803  160.0056 C.2     1  UNL1        0.3135
      3 O         139.9782  138.8506  160.2841 O.2     1  UNL1       -0.2518
      4 N         138.9891  141.0952  161.1407 N.am    1  UNL1       -0.2282
      5 C         138.3532  142.4249  160.8623 C.3     1  UNL1        0.1015
      6 C         138.0001  143.3397  161.9973 C.3     1  UNL1        0.0268
      7 C         138.2828  142.9248  163.4108 C.3     1  UNL1        0.0310
      8 C         138.9187  141.5951  163.6893 C.ar    1  UNL1        0.0096
      9 C         139.2014  141.1802  165.1027 C.ar    1  UNL1       -0.0025
     10 C         139.8373  139.8505  165.3812 C.ar    1  UNL1        0.0184
     11 CA        140.1905  138.9357  164.2461 C.ar    1  UNL1        0.1224
     12 N         139.9077  139.3506  162.8326 N.ar    1  UNL1       -0.2275
     13 C         139.2718  140.6803  162.5542 C.ar    1  UNL1        0.1345
     14 H         138.6422  141.4679  158.4094 H       1  UNL1        0.1578
     15 C         141.1299  138.1448  156.2556 C.ar    1  UNL1        0.1525
     16 C         140.7767  139.0596  157.3907 C.ar    1  UNL1        0.0721
     17 C         139.4128  139.6804  157.4571 C.ar    1  UNL1        0.1384
     18 N         138.4021  139.3864  156.3884 N.ar    1  UNL1       -0.2281
     19 C         138.7553  138.4715  155.2534 C.ar    1  UNL1        0.1136
     20 C         140.1192  137.8508  155.1870 C.ar    1  UNL1        0.1215
     21 C         140.4723  136.9360  154.0519 C.1     1  UNL1        0.1051
     22 N         140.8256  136.0212  152.9168 N.1     1  UNL1       -0.1907
     23 O         142.4937  137.5240  156.1892 O.3     1  UNL1       -0.4719
     24 C         142.8272  136.3510  157.0626 C.3     1  UNL1        0.2373
     25 C         143.3658  135.0909  156.4525 C.3     1  UNL1        0.1894
     26 C         144.4977  133.1819  157.8034 C.3     1  UNL1        0.1743
     27 O         143.2683  133.7943  157.2005 O.3     1  UNL1       -0.3471
     28 C         140.8263  137.6060  164.5245 C.2     1  UNL1        0.2529
     29 O         141.1009  136.6551  163.3973 O.2     1  UNL1       -0.2815
     30 C         140.1200  139.4357  166.7947 C.3     1  UNL1        0.1217
     31 N         140.8243  140.3771  167.7260 N.am    1  UNL1       -0.2761
     32 C         142.1859  140.8998  167.3757 C.2     1  UNL1        0.2422
     33 O         142.8432  140.4811  166.0941 O.2     1  UNL1       -0.2733
     34 C         142.8903  141.8414  168.3071 C.3     1  UNL1        0.1587
     35 N         142.2331  142.2601  169.5888 N.3     1  UNL1       -0.2624
     36 C         142.9374  143.2016  170.5202 C.3     1  UNL1        0.0901
     37 C         140.8714  141.7374  169.9391 C.3     1  UNL1        0.0909
     38 C         140.1670  140.7959  169.0077 C.3     1  UNL1        0.0754
     39 C         139.1065  139.8907  168.4547 C.3     1  UNL1        0.0213
     40 C         139.1415  140.9003  170.0973 C.3     1  UNL1        0.0213
@<TRIPOS>BOND
     1    26    27    1
     2    27    25    1
     3    25    24    1
     4    24    23    1
     5    23    15    1
     6    15    16   ar
     7    16    17   ar
     8    17     1    1
     9     1     2   am
    10     2     3    2
    11     2     4   am
    12     4     5    1
    13     5     6    1
    14     6     7    1
    15     7     8    1
    16     8     9   ar
    17     9    10   ar
    18    10    30    1
    19    30    31    1
    20    31    32   am
    21    32    33    2
    22    32    34    1
    23    34    35    1
    24    35    36    1
    25    35    37    1
    26    37    38    1
    27    38    39    1
    28    38    40    1
    29    10    11   ar
    30    11    28    1
    31    28    29    2
    32    11    12   ar
    33    12    13   ar
    34    17    18   ar
    35    18    19   ar
    36    19    20   ar
    37    20    21    1
    38    21    22    3
    39    20    15   ar
    40    13     4    1
    41    13     8   ar
    42    38    31    1
    43     1    14    1
@<TRIPOS>MOLECULE
*****
 40 43 0 0 0
SMALL
GASTEIGER

@<TRIPOS>ATOM
      1 N         143.4349  138.2755  156.8277 N.am    1  UNL1       -0.2531
      2 C         142.4726  138.7089  157.8935 C.2     1  UNL1        0.3135
      3 O         141.2349  137.9041  158.1587 O.2     1  UNL1       -0.2518
      4 N         142.7480  139.9470  158.6943 N.am    1  UNL1       -0.2282
      5 C         143.9858  140.7518  158.4291 C.3     1  UNL1        0.1015
      6 C         144.2611  141.9899  159.2298 C.3     1  UNL1        0.0268
      7 C         143.2988  142.4233  160.2957 C.3     1  UNL1        0.0310
      8 C         142.0611  141.6185  160.5609 C.ar    1  UNL1        0.0096
      9 C         141.0987  142.0519  161.6267 C.ar    1  UNL1       -0.0025
     10 C         139.8610  141.2471  161.8919 C.ar    1  UNL1        0.0184
     11 CA        139.5855  140.0089  161.0911 C.ar    1  UNL1        0.1224
     12 N         140.5479  139.5756  160.0253 N.ar    1  UNL1       -0.2275
     13 C         141.7857  140.3804  159.7601 C.ar    1  UNL1        0.1345
     14 H         144.2473  138.8037  156.6536 H       1  UNL1        0.1578
     15 C         143.2416  134.4522  155.7811 C.ar    1  UNL1        0.1525
     16 C         143.5170  135.6903  156.5818 C.ar    1  UNL1        0.0721
     17 C         143.1596  137.0374  156.0269 C.ar    1  UNL1        0.1384
     18 N         142.5268  137.1462  154.6713 N.ar    1  UNL1       -0.2281
     19 C         142.2514  135.9080  153.8706 C.ar    1  UNL1        0.1136
     20 C         142.6088  134.5611  154.4255 C.ar    1  UNL1        0.1215
     21 C         142.3334  133.3230  153.6248 C.1     1  UNL1        0.1051
     22 N         142.0581  132.0848  152.8240 N.1     1  UNL1       -0.1907
     23 O         143.5990  133.1053  156.3360 O.3     1  UNL1       -0.4719
     24 C         144.4309  133.0033  157.5800 C.3     1  UNL1        0.2373
     25 C         145.1163  131.7131  157.9202 C.3     1  UNL1        0.1894
     26 C         144.4586  129.3216  158.6936 C.3     1  UNL1        0.1743
     27 O         144.4280  130.4064  157.6581 O.3     1  UNL1       -0.3471
     28 C         138.3478  139.2042  161.3563 C.2     1  UNL1        0.2529
     29 O         138.4089  138.0111  162.2634 O.2     1  UNL1       -0.2815
     30 C         138.8986  141.6805  162.9577 C.3     1  UNL1        0.1217
     31 N         139.3923  141.9555  164.3472 N.am    1  UNL1       -0.2761
     32 C         140.1223  140.8890  165.1085 C.2     1  UNL1        0.2422
     33 O         140.3585  139.5475  164.4804 O.2     1  UNL1       -0.2733
     34 C         140.6161  141.1640  166.4980 C.3     1  UNL1        0.1587
     35 N         140.3798  142.5055  167.1261 N.3     1  UNL1       -0.2624
     36 C         140.8735  142.7806  168.5155 C.3     1  UNL1        0.0901
     37 C         139.6498  143.5721  166.3647 C.3     1  UNL1        0.0909
     38 C         139.1561  143.2970  164.9753 C.3     1  UNL1        0.0754
     39 C         138.5014  143.5141  163.6433 C.3     1  UNL1        0.0213
     40 C         138.6925  144.7139  165.1408 C.3     1  UNL1        0.0213
@<TRIPOS>BOND
     1    26    27    1
     2    27    25    1
     3    25    24    1
     4    24    23    1
     5    23    15    1
     6    15    16   ar
     7    16    17   ar
     8    17     1    1
     9     1     2   am
    10     2     3    2
    11     2     4   am
    12     4     5    1
    13     5     6    1
    14     6     7    1
    15     7     8    1
    16     8     9   ar
    17     9    10   ar
    18    10    30    1
    19    30    31    1
    20    31    32   am
    21    32    33    2
    22    32    34    1
    23    34    35    1
    24    35    36    1
    25    35    37    1
    26    37    38    1
    27    38    39    1
    28    38    40    1
    29    10    11   ar
    30    11    28    1
    31    28    29    2
    32    11    12   ar
    33    12    13   ar
    34    17    18   ar
    35    18    19   ar
    36    19    20   ar
    37    20    21    1
    38    21    22    3
    39    20    15   ar
    40    13     4    1
    41    13     8   ar
    42    38    31    1
    43     1    14    1
@<TRIPOS>MOLECULE
*****
 40 43 0 0 0
SMALL
GASTEIGER

@<TRIPOS>ATOM
      1 N         143.7756  137.2896  154.7723 N.am    1  UNL1       -0.2531
      2 C         143.7933  138.1494  156.0013 C.2     1  UNL1        0.3135
      3 O         143.1263  137.6748  157.2583 O.2     1  UNL1       -0.2518
      4 N         144.4780  139.4837  155.9734 N.am    1  UNL1       -0.2282
      5 C         145.1449  139.9583  154.7164 C.3     1  UNL1        0.1015
      6 C         145.8295  141.2926  154.6885 C.3     1  UNL1        0.0268
      7 C         145.8472  142.1524  155.9175 C.3     1  UNL1        0.0310
      8 C         145.1803  141.6778  157.1745 C.ar    1  UNL1        0.0096
      9 C         145.1980  142.5376  158.4035 C.ar    1  UNL1       -0.0025
     10 C         144.5311  142.0630  159.6604 C.ar    1  UNL1        0.0184
     11 CA        143.8464  140.7287  159.6884 C.ar    1  UNL1        0.1224
     12 N         143.8287  139.8689  158.4594 N.ar    1  UNL1       -0.2275
     13 C         144.4957  140.3435  157.2024 C.ar    1  UNL1        0.1345
     14 H         144.2133  137.6011  153.9473 H       1  UNL1        0.1578
     15 C         142.5596  133.7241  156.0208 C.ar    1  UNL1        0.1525
     16 C         143.2442  135.0584  155.9929 C.ar    1  UNL1        0.0721
     17 C         143.0909  135.9553  154.8002 C.ar    1  UNL1        0.1384
     18 N         142.2530  135.5177  153.6356 N.ar    1  UNL1       -0.2281
     19 C         141.5684  134.1833  153.6636 C.ar    1  UNL1        0.1136
     20 C         141.7217  133.2866  154.8561 C.ar    1  UNL1        0.1215
     21 C         141.0370  131.9522  154.8841 C.1     1  UNL1        0.1051
     22 N         140.3524  130.6178  154.9120 N.1     1  UNL1       -0.1907
     23 O         142.7129  132.8274  157.2134 O.3     1  UNL1       -0.4719
     24 C         143.8663  131.8715  157.2896 C.3     1  UNL1        0.2373
     25 C         144.8607  131.8050  156.1685 C.3     1  UNL1        0.1894
     26 C         144.1720  130.1079  154.3258 C.3     1  UNL1        0.1743
     27 O         145.0877  130.5118  155.4430 O.3     1  UNL1       -0.3471
     28 C         143.1795  140.2541  160.9453 C.2     1  UNL1        0.2529
     29 O         143.9377  139.4049  161.9221 O.2     1  UNL1       -0.2815
     30 C         144.5488  142.9228  160.8894 C.3     1  UNL1        0.1217
     31 N         143.2651  143.4669  161.4426 N.am    1  UNL1       -0.2761
     32 C         142.2372  144.0491  160.5183 C.2     1  UNL1        0.2422
     33 O         142.4929  144.0871  159.0407 O.2     1  UNL1       -0.2733
     34 C         140.9534  144.5932  161.0715 C.3     1  UNL1        0.1587
     35 N         140.6977  144.5553  162.5490 N.3     1  UNL1       -0.2624
     36 C         139.4140  145.0994  163.1022 C.3     1  UNL1        0.0901
     37 C         141.7257  143.9731  163.4734 C.3     1  UNL1        0.0909
     38 C         143.0094  143.4290  162.9202 C.3     1  UNL1        0.0754
     39 C         144.3681  142.7952  162.8746 C.3     1  UNL1        0.0213
     40 C         143.2255  143.1709  164.3819 C.3     1  UNL1        0.0213
@<TRIPOS>BOND
     1    26    27    1
     2    27    25    1
     3    25    24    1
     4    24    23    1
     5    23    15    1
     6    15    16   ar
     7    16    17   ar
     8    17     1    1
     9     1     2   am
    10     2     3    2
    11     2     4   am
    12     4     5    1
    13     5     6    1
    14     6     7    1
    15     7     8    1
    16     8     9   ar
    17     9    10   ar
    18    10    30    1
    19    30    31    1
    20    31    32   am
    21    32    33    2
    22    32    34    1
    23    34    35    1
    24    35    36    1
    25    35    37    1
    26    37    38    1
    27    38    39    1
    28    38    40    1
    29    10    11   ar
    30    11    28    1
    31    28    29    2
    32    11    12   ar
    33    12    13   ar
    34    17    18   ar
    35    18    19   ar
    36    19    20   ar
    37    20    21    1
    38    21    22    3
    39    20    15   ar
    40    13     4    1
    41    13     8   ar
    42    38    31    1
    43     1    14    1
@<TRIPOS>MOLECULE
*****
 40 43 0 0 0
SMALL
GASTEIGER

@<TRIPOS>ATOM
      1 N         143.0300  141.0581  165.1279 N.am    1  UNL1       -0.2531
      2 C         142.5280  141.9490  164.0305 C.2     1  UNL1        0.3135
      3 O         141.5372  143.0323  164.3381 O.2     1  UNL1       -0.2518
      4 N         143.0169  141.7566  162.6255 N.am    1  UNL1       -0.2282
      5 C         144.0078  140.6733  162.3179 C.3     1  UNL1        0.1015
      6 C         144.4967  140.4810  160.9129 C.3     1  UNL1        0.0268
      7 C         143.9947  141.3719  159.8156 C.3     1  UNL1        0.0310
      8 C         143.0038  142.4552  160.1231 C.ar    1  UNL1        0.0096
      9 C         142.5018  143.3461  159.0257 C.ar    1  UNL1       -0.0025
     10 C         141.5110  144.4294  159.3333 C.ar    1  UNL1        0.0184
     11 CA        141.0221  144.6218  160.7383 C.ar    1  UNL1        0.1224
     12 N         141.5241  143.7309  161.8357 N.ar    1  UNL1       -0.2275
     13 C         142.5150  142.6476  161.5281 C.ar    1  UNL1        0.1345
     14 H         143.6803  140.3471  164.9260 H       1  UNL1        0.1578
     15 C         140.9377  140.5899  168.4675 C.ar    1  UNL1        0.1525
     16 C         141.4266  140.3976  167.0626 C.ar    1  UNL1        0.0721
     17 C         142.5411  141.2505  166.5328 C.ar    1  UNL1        0.1384
     18 N         143.1667  142.2957  167.4082 N.ar    1  UNL1       -0.2281
     19 C         142.6778  142.4880  168.8132 C.ar    1  UNL1        0.1136
     20 C         141.5633  141.6352  169.3428 C.ar    1  UNL1        0.1215
     21 C         141.0745  141.8275  170.7478 C.1     1  UNL1        0.1051
     22 N         140.5855  142.0199  172.1528 N.1     1  UNL1       -0.1907
     23 O         139.8233  139.7371  168.9972 O.3     1  UNL1       -0.4719
     24 C         138.4921  139.7283  168.3059 C.3     1  UNL1        0.2373
     25 C         138.2154  138.7267  167.2240 C.3     1  UNL1        0.1894
     26 C         138.2929  140.3035  165.1606 C.3     1  UNL1        0.1743
     27 O         137.6455  139.1782  165.9120 O.3     1  UNL1       -0.3471
     28 C         140.0312  145.7051  161.0459 C.2     1  UNL1        0.2529
     29 O         138.8826  145.4305  161.9708 O.2     1  UNL1       -0.2815
     30 C         141.0090  145.3204  158.2359 C.3     1  UNL1        0.1217
     31 N         140.3097  144.7271  157.0490 N.am    1  UNL1       -0.2761
     32 C         139.1865  143.7533  157.2498 C.2     1  UNL1        0.2422
     33 O         138.7628  143.3729  158.6374 O.2     1  UNL1       -0.2733
     34 C         138.4871  143.1600  156.0628 C.3     1  UNL1        0.1587
     35 N         138.9109  143.5404  154.6751 N.3     1  UNL1       -0.2624
     36 C         138.2115  142.9471  153.4882 C.3     1  UNL1        0.0901
     37 C         140.0341  144.5142  154.4744 C.3     1  UNL1        0.0909
     38 C         140.7334  145.1075  155.6613 C.3     1  UNL1        0.0754
     39 C         141.6961  145.9325  156.4630 C.3     1  UNL1        0.0213
     40 C         141.4915  145.7744  154.5521 C.3     1  UNL1        0.0213
@<TRIPOS>BOND
     1    26    27    1
     2    27    25    1
     3    25    24    1
     4    24    23    1
     5    23    15    1
     6    15    16   ar
     7    16    17   ar
     8    17     1    1
     9     1     2   am
    10     2     3    2
    11     2     4   am
    12     4     5    1
    13     5     6    1
    14     6     7    1
    15     7     8    1
    16     8     9   ar
    17     9    10   ar
    18    10    30    1
    19    30    31    1
    20    31    32   am
    21    32    33    2
    22    32    34    1
    23    34    35    1
    24    35    36    1
    25    35    37    1
    26    37    38    1
    27    38    39    1
    28    38    40    1
    29    10    11   ar
    30    11    28    1
    31    28    29    2
    32    11    12   ar
    33    12    13   ar
    34    17    18   ar
    35    18    19   ar
    36    19    20   ar
    37    20    21    1
    38    21    22    3
    39    20    15   ar
    40    13     4    1
    41    13     8   ar
    42    38    31    1
    43     1    14    1
@<TRIPOS>MOLECULE
*****
 40 43 0 0 0
SMALL
GASTEIGER

@<TRIPOS>ATOM
      1 N         139.8016  139.5431  164.7016 N.am    1  UNL1       -0.2531
      2 C         140.3613  140.2436  163.4990 C.2     1  UNL1        0.3135
      3 O         141.6959  140.9234  163.5806 O.2     1  UNL1       -0.2518
      4 N         139.5864  140.2641  162.2148 N.am    1  UNL1       -0.2282
      5 C         138.2519  139.5842  162.1332 C.3     1  UNL1        0.1015
      6 C         137.4770  139.6048  160.8490 C.3     1  UNL1        0.0268
      7 C         138.0367  140.3052  159.6464 C.3     1  UNL1        0.0310
      8 C         139.3713  140.9851  159.7281 C.ar    1  UNL1        0.0096
      9 C         139.9310  141.6855  158.5255 C.ar    1  UNL1       -0.0025
     10 C         141.2656  142.3653  158.6071 C.ar    1  UNL1        0.0184
     11 CA        142.0405  142.3448  159.8914 C.ar    1  UNL1        0.1224
     12 N         141.4808  141.6444  161.0939 N.ar    1  UNL1       -0.2275
     13 C         140.1461  140.9645  161.0122 C.ar    1  UNL1        0.1345
     14 H         138.9257  139.0969  164.6480 H       1  UNL1        0.1578
     15 C         140.6898  139.9140  168.5517 C.ar    1  UNL1        0.1525
     16 C         139.9150  139.9345  167.2675 C.ar    1  UNL1        0.0721
     17 C         140.5764  139.5226  165.9858 C.ar    1  UNL1        0.1384
     18 N         142.0127  139.0901  165.9883 N.ar    1  UNL1       -0.2281
     19 C         142.7876  139.0696  167.2725 C.ar    1  UNL1        0.1136
     20 C         142.1261  139.4815  168.5542 C.ar    1  UNL1        0.1215
     21 C         142.9009  139.4609  169.8384 C.1     1  UNL1        0.1051
     22 N         143.6759  139.4404  171.1226 N.1     1  UNL1       -0.1907
     23 O         140.0283  140.3259  169.8334 O.3     1  UNL1       -0.4719
     24 C         139.4927  141.7185  169.9871 C.3     1  UNL1        0.2373
     25 C         140.1850  142.6924  170.8941 C.3     1  UNL1        0.1894
     26 C         142.7056  143.0355  170.3665 C.3     1  UNL1        0.1743
     27 O         141.6269  142.4881  171.2534 O.3     1  UNL1       -0.3471
     28 C         143.3750  143.0247  159.9730 C.2     1  UNL1        0.2529
     29 O         143.7354  143.8261  161.1887 O.2     1  UNL1       -0.2815
     30 C         141.8253  143.0657  157.4046 C.3     1  UNL1        0.1217
     31 N         141.0870  144.2226  156.7992 N.am    1  UNL1       -0.2761
     32 C         140.6870  145.3876  157.6552 C.2     1  UNL1        0.2422
     33 O         141.0253  145.3958  159.1165 O.2     1  UNL1       -0.2733
     34 C         139.9486  146.5445  157.0498 C.3     1  UNL1        0.1587
     35 N         139.6103  146.5364  155.5885 N.3     1  UNL1       -0.2624
     36 C         138.8720  147.6933  154.9831 C.3     1  UNL1        0.0901
     37 C         140.0103  145.3713  154.7325 C.3     1  UNL1        0.0909
     38 C         140.7486  144.2144  155.3379 C.3     1  UNL1        0.0754
     39 C         141.4546  142.8957  155.4492 C.3     1  UNL1        0.0213
     40 C         140.6555  143.7483  153.9153 C.3     1  UNL1        0.0213
@<TRIPOS>BOND
     1    26    27    1
     2    27    25    1
     3    25    24    1
     4    24    23    1
     5    23    15    1
     6    15    16   ar
     7    16    17   ar
     8    17     1    1
     9     1     2   am
    10     2     3    2
    11     2     4   am
    12     4     5    1
    13     5     6    1
    14     6     7    1
    15     7     8    1
    16     8     9   ar
    17     9    10   ar
    18    10    30    1
    19    30    31    1
    20    31    32   am
    21    32    33    2
    22    32    34    1
    23    34    35    1
    24    35    36    1
    25    35    37    1
    26    37    38    1
    27    38    39    1
    28    38    40    1
    29    10    11   ar
    30    11    28    1
    31    28    29    2
    32    11    12   ar
    33    12    13   ar
    34    17    18   ar
    35    18    19   ar
    36    19    20   ar
    37    20    21    1
    38    21    22    3
    39    20    15   ar
    40    13     4    1
    41    13     8   ar
    42    38    31    1
    43     1    14    1
@<TRIPOS>MOLECULE
*****
 40 43 0 0 0
SMALL
GASTEIGER

@<TRIPOS>ATOM
      1 N         139.1911  139.6508  163.5378 N.am    1  UNL1       -0.2531
      2 C         139.4185  140.8831  162.7134 C.2     1  UNL1        0.3135
      3 O         139.7492  142.1836  163.3838 O.2     1  UNL1       -0.2518
      4 N         139.3151  140.8150  161.2184 N.am    1  UNL1       -0.2282
      5 C         138.9844  139.5146  160.5480 C.3     1  UNL1        0.1015
      6 C         138.8811  139.4464  159.0532 C.3     1  UNL1        0.0268
      7 C         139.1085  140.6788  158.2287 C.3     1  UNL1        0.0310
      8 C         139.4392  141.9792  158.8991 C.ar    1  UNL1        0.0096
      9 C         139.6666  143.2115  158.0747 C.ar    1  UNL1       -0.0025
     10 C         139.9973  144.5119  158.7451 C.ar    1  UNL1        0.0184
     11 CA        140.1006  144.5801  160.2400 C.ar    1  UNL1        0.1224
     12 N         139.8732  143.3478  161.0645 N.ar    1  UNL1       -0.2275
     13 C         139.5425  142.0473  160.3940 C.ar    1  UNL1        0.1345
     14 H         138.9740  138.7973  163.0978 H       1  UNL1        0.1578
     15 C         140.6710  140.2505  167.1710 C.ar    1  UNL1        0.1525
     16 C         140.5677  140.1824  165.6761 C.ar    1  UNL1        0.0721
     17 C         139.2944  139.7189  165.0327 C.ar    1  UNL1        0.1384
     18 N         138.1245  139.3236  165.8841 N.ar    1  UNL1       -0.2281
     19 C         138.2278  139.3917  167.3791 C.ar    1  UNL1        0.1136
     20 C         139.5011  139.8552  168.0224 C.ar    1  UNL1        0.1215
     21 C         139.6044  139.9233  169.5173 C.1     1  UNL1        0.1051
     22 N         139.7077  139.9914  171.0122 N.1     1  UNL1       -0.1907
     23 O         141.9443  140.7140  167.8144 O.3     1  UNL1       -0.4719
     24 C         142.0815  142.1379  168.2656 C.3     1  UNL1        0.2373
     25 C         142.4508  142.4418  169.6873 C.3     1  UNL1        0.1894
     26 C         140.3502  143.9448  169.9672 C.3     1  UNL1        0.1743
     27 O         141.4872  143.1759  170.5720 O.3     1  UNL1       -0.3471
     28 C         140.4314  145.8805  160.9104 C.2     1  UNL1        0.2529
     29 O         139.3360  146.7242  161.4923 O.2     1  UNL1       -0.2815
     30 C         140.2247  145.7442  157.9206 C.3     1  UNL1        0.1217
     31 N         140.9447  145.6463  156.6084 N.am    1  UNL1       -0.2761
     32 C         142.2285  144.8766  156.5130 C.2     1  UNL1        0.2422
     33 O         142.7924  144.2047  157.7297 O.2     1  UNL1       -0.2733
     34 C         142.9486  144.7787  155.2007 C.3     1  UNL1        0.1587
     35 N         142.3847  145.4506  153.9839 N.3     1  UNL1       -0.2624
     36 C         143.1047  145.3527  152.6716 C.3     1  UNL1        0.0901
     37 C         141.1008  146.2204  154.0794 C.3     1  UNL1        0.0909
     38 C         140.3808  146.3182  155.3916 C.3     1  UNL1        0.0754
     39 C         139.3394  146.6949  156.4033 C.3     1  UNL1        0.0213
     40 C         139.4553  147.1209  154.5262 C.3     1  UNL1        0.0213
@<TRIPOS>BOND
     1    26    27    1
     2    27    25    1
     3    25    24    1
     4    24    23    1
     5    23    15    1
     6    15    16   ar
     7    16    17   ar
     8    17     1    1
     9     1     2   am
    10     2     3    2
    11     2     4   am
    12     4     5    1
    13     5     6    1
    14     6     7    1
    15     7     8    1
    16     8     9   ar
    17     9    10   ar
    18    10    30    1
    19    30    31    1
    20    31    32   am
    21    32    33    2
    22    32    34    1
    23    34    35    1
    24    35    36    1
    25    35    37    1
    26    37    38    1
    27    38    39    1
    28    38    40    1
    29    10    11   ar
    30    11    28    1
    31    28    29    2
    32    11    12   ar
    33    12    13   ar
    34    17    18   ar
    35    18    19   ar
    36    19    20   ar
    37    20    21    1
    38    21    22    3
    39    20    15   ar
    40    13     4    1
    41    13     8   ar
    42    38    31    1
    43     1    14    1
@<TRIPOS>MOLECULE
*****
 40 43 0 0 0
SMALL
GASTEIGER

@<TRIPOS>ATOM
      1 N         142.2926  139.5717  164.3314 N.am    1  UNL1       -0.2531
      2 C         141.9755  140.6408  163.3280 C.2     1  UNL1        0.3135
      3 O         141.1454  141.8238  163.7296 O.2     1  UNL1       -0.2518
      4 N         142.4886  140.5267  161.9231 N.am    1  UNL1       -0.2282
      5 C         143.3188  139.3437  161.5216 C.3     1  UNL1        0.1015
      6 C         143.8319  139.2297  160.1167 C.3     1  UNL1        0.0268
      7 C         143.5148  140.2988  159.1134 C.3     1  UNL1        0.0310
      8 C         142.6847  141.4818  159.5149 C.ar    1  UNL1        0.0096
      9 C         142.3676  142.5508  158.5116 C.ar    1  UNL1       -0.0025
     10 C         141.5375  143.7338  158.9132 C.ar    1  UNL1        0.0184
     11 CA        141.0243  143.8479  160.3181 C.ar    1  UNL1        0.1224
     12 N         141.3414  142.7788  161.3214 N.ar    1  UNL1       -0.2275
     13 C         142.1716  141.5958  160.9198 C.ar    1  UNL1        0.1345
     14 H         142.8374  138.7953  164.0678 H       1  UNL1        0.1578
     15 C         142.2292  139.9540  168.2810 C.ar    1  UNL1        0.1525
     16 C         142.7423  139.8400  166.8761 C.ar    1  UNL1        0.0721
     17 C         141.7795  139.6857  165.7362 C.ar    1  UNL1        0.1384
     18 N         140.3036  139.6454  166.0013 N.ar    1  UNL1       -0.2281
     19 C         139.7906  139.7594  167.4062 C.ar    1  UNL1        0.1136
     20 C         140.7533  139.9137  168.5461 C.ar    1  UNL1        0.1215
     21 C         140.2403  140.0276  169.9509 C.1     1  UNL1        0.1051
     22 N         139.7272  140.1416  171.3559 N.1     1  UNL1       -0.1907
     23 O         143.1920  140.1083  169.4208 O.3     1  UNL1       -0.4719
     24 C         143.5419  141.4762  169.9270 C.3     1  UNL1        0.2373
     25 C         142.8015  142.6769  169.4168 C.3     1  UNL1        0.1894
     26 C         140.4684  143.7404  169.8360 C.3     1  UNL1        0.1743
     27 O         141.8504  143.4095  170.3161 O.3     1  UNL1       -0.3471
     28 C         140.1942  145.0309  160.7197 C.2     1  UNL1        0.2529
     29 O         139.0318  144.8502  161.6504 O.2     1  UNL1       -0.2815
     30 C         141.2204  144.8029  157.9099 C.3     1  UNL1        0.1217
     31 N         140.4593  144.4599  156.6636 N.am    1  UNL1       -0.2761
     32 C         139.1420  143.7493  156.7611 C.2     1  UNL1        0.2422
     33 O         138.5857  143.3816  158.1047 O.2     1  UNL1       -0.2733
     34 C         138.3809  143.4062  155.5148 C.3     1  UNL1        0.1587
     35 N         138.9371  143.7739  154.1712 N.3     1  UNL1       -0.2624
     36 C         138.1761  143.4309  152.9249 C.3     1  UNL1        0.0901
     37 C         140.2546  144.4846  154.0738 C.3     1  UNL1        0.0909
     38 C         141.0156  144.8276  155.3200 C.3     1  UNL1        0.0754
     39 C         142.1008  145.3628  156.2065 C.3     1  UNL1        0.0213
     40 C         141.9487  145.3811  154.2843 C.3     1  UNL1        0.0213
@<TRIPOS>BOND
     1    26    27    1
     2    27    25    1
     3    25    24    1
     4    24    23    1
     5    23    15    1
     6    15    16   ar
     7    16    17   ar
     8    17     1    1
     9     1     2   am
    10     2     3    2
    11     2     4   am
    12     4     5    1
    13     5     6    1
    14     6     7    1
    15     7     8    1
    16     8     9   ar
    17     9    10   ar
    18    10    30    1
    19    30    31    1
    20    31    32   am
    21    32    33    2
    22    32    34    1
    23    34    35    1
    24    35    36    1
    25    35    37    1
    26    37    38    1
    27    38    39    1
    28    38    40    1
    29    10    11   ar
    30    11    28    1
    31    28    29    2
    32    11    12   ar
    33    12    13   ar
    34    17    18   ar
    35    18    19   ar
    36    19    20   ar
    37    20    21    1
    38    21    22    3
    39    20    15   ar
    40    13     4    1
    41    13     8   ar
    42    38    31    1
    43     1    14    1
