@<TRIPOS>MOLECULE
*****
 27 31 0 0 0
SMALL
GASTEIGER

@<TRIPOS>ATOM
      1 C         139.5788  140.3597  161.6425 C.3     1  UNL1        0.0767
      2 C         139.4223  139.8204  163.0334 C.3     1  UNL1        0.0092
      3 C         140.2206  140.9716  163.5697 C.3     1  UNL1        0.0042
      4 C         139.8628  140.1527  164.7744 C.3     1  UNL1        0.0215
      5 C         140.3166  140.5854  166.1370 C.3     1  UNL1        0.0908
      6 N         141.1282  141.8369  166.2949 N.pl3   1  UNL1       -0.3075
      7 C         141.4860  142.6558  165.0902 C.3     1  UNL1        0.0908
      8 C         141.0322  142.2232  163.7276 C.3     1  UNL1        0.0215
      9 C         140.3771  141.5109  162.1787 C.3     1  UNL1        0.0092
     10 O         137.7423  140.2657  159.8072 O.2     1  UNL1       -0.2749
     11 C         139.1250  139.9270  160.2798 C.2     1  UNL1        0.2252
     12 N         140.0539  139.1557  159.3898 N.am    1  UNL1       -0.2767
     13 C         141.4366  138.8171  159.8625 C.3     1  UNL1        0.1107
     14 C         142.3656  138.0457  158.9724 C.3     1  UNL1        0.0939
     15 N         141.9118  137.6131  157.6098 N.3     1  UNL1       -0.2711
     16 C         140.5291  137.9517  157.1371 C.3     1  UNL1        0.0939
     17 C         139.6001  138.7230  158.0271 C.3     1  UNL1        0.1107
     18 C         142.8407  136.8418  156.7198 C.3     1  UNL1        0.0576
     19 C         143.1793  135.3912  156.5425 C.3     1  UNL1        0.0160
     20 C         144.1545  135.7509  155.4610 C.3     1  UNL1        0.0028
     21 C         143.8159  137.2015  155.6383 C.3     1  UNL1        0.0160
     22 C         141.5820  142.2696  167.6576 C.ar    1  UNL1        0.0478
     23 C         140.6300  142.9775  168.5755 C.ar    1  UNL1        0.0145
     24 C         141.0838  143.4101  169.9382 C.ar    1  UNL1        0.0013
     25 C         142.4897  143.1348  170.3830 C.ar    1  UNL1        0.0001
     26 C         143.4417  142.4269  169.4651 C.ar    1  UNL1        0.0013
     27 C         142.9879  141.9943  168.1024 C.ar    1  UNL1        0.0145
@<TRIPOS>BOND
     1    10    11    2
     2    11     1    1
     3     1     2    1
     4     2     3    1
     5     3     4    1
     6     4     5    1
     7     5     6    1
     8     6    22    1
     9    22    23   ar
    10    23    24   ar
    11    24    25   ar
    12    25    26   ar
    13    26    27   ar
    14     6     7    1
    15     7     8    1
    16     3     9    1
    17    11    12   am
    18    12    13    1
    19    13    14    1
    20    14    15    1
    21    15    18    1
    22    18    19    1
    23    19    20    1
    24    20    21    1
    25    15    16    1
    26    16    17    1
    27     9     1    1
    28    17    12    1
    29     8     3    1
    30    21    18    1
    31    27    22   ar
@<TRIPOS>MOLECULE
*****
 27 31 0 0 0
SMALL
GASTEIGER

@<TRIPOS>ATOM
      1 C         142.4502  138.1094  159.0622 C.3     1  UNL1        0.0767
      2 C         143.3840  138.1826  160.2338 C.3     1  UNL1        0.0092
      3 C         142.2276  138.4968  161.1360 C.3     1  UNL1        0.0042
      4 C         143.4289  138.4862  162.0341 C.3     1  UNL1        0.0215
      5 C         143.2715  138.7602  163.5004 C.3     1  UNL1        0.0908
      6 N         141.9128  139.0448  164.0686 N.pl3   1  UNL1       -0.3075
      7 C         140.7115  139.0555  163.1705 C.3     1  UNL1        0.0908
      8 C         140.8689  138.7815  161.7042 C.3     1  UNL1        0.0215
      9 C         141.2938  138.4237  159.9644 C.3     1  UNL1        0.0092
     10 O         142.3987  138.9377  156.6002 O.2     1  UNL1       -0.2749
     11 C         142.6076  137.8354  157.5959 C.2     1  UNL1        0.2252
     12 N         142.9740  136.4591  157.1252 N.am    1  UNL1       -0.2767
     13 C         143.1829  135.3568  158.1208 C.3     1  UNL1        0.1107
     14 C         143.5492  133.9804  157.6501 C.3     1  UNL1        0.0939
     15 N         143.7067  133.7065  156.1837 N.3     1  UNL1       -0.2711
     16 C         143.4977  134.8088  155.1881 C.3     1  UNL1        0.0939
     17 C         143.1314  136.1850  155.6588 C.3     1  UNL1        0.1107
     18 C         144.0730  132.3302  155.7131 C.3     1  UNL1        0.0576
     19 C         145.0239  131.2678  156.1792 C.3     1  UNL1        0.0160
     20 C         144.5911  130.3837  155.0474 C.3     1  UNL1        0.0028
     21 C         143.6402  131.4461  154.5812 C.3     1  UNL1        0.0160
     22 C         141.7554  139.3188  165.5350 C.ar    1  UNL1        0.0478
     23 C         140.4143  139.7022  166.0866 C.ar    1  UNL1        0.0145
     24 C         140.2569  139.9762  167.5530 C.ar    1  UNL1        0.0013
     25 C         141.4407  139.8668  168.4677 C.ar    1  UNL1        0.0001
     26 C         142.7819  139.4833  167.9160 C.ar    1  UNL1        0.0013
     27 C         142.9392  139.2093  166.4497 C.ar    1  UNL1        0.0145
@<TRIPOS>BOND
     1    10    11    2
     2    11     1    1
     3     1     2    1
     4     2     3    1
     5     3     4    1
     6     4     5    1
     7     5     6    1
     8     6    22    1
     9    22    23   ar
    10    23    24   ar
    11    24    25   ar
    12    25    26   ar
    13    26    27   ar
    14     6     7    1
    15     7     8    1
    16     3     9    1
    17    11    12   am
    18    12    13    1
    19    13    14    1
    20    14    15    1
    21    15    18    1
    22    18    19    1
    23    19    20    1
    24    20    21    1
    25    15    16    1
    26    16    17    1
    27     9     1    1
    28    17    12    1
    29     8     3    1
    30    21    18    1
    31    27    22   ar
@<TRIPOS>MOLECULE
*****
 27 31 0 0 0
SMALL
GASTEIGER

@<TRIPOS>ATOM
      1 C         140.5598  144.8527  162.2788 C.3     1  UNL1        0.0767
      2 C         141.8517  144.3920  162.8860 C.3     1  UNL1        0.0092
      3 C         141.1010  143.8278  164.0556 C.3     1  UNL1        0.0042
      4 C         142.5432  143.5289  164.3393 C.3     1  UNL1        0.0215
      5 C         142.9258  142.8042  165.5956 C.3     1  UNL1        0.0908
      6 N         141.8662  142.3784  166.5682 N.pl3   1  UNL1       -0.3075
      7 C         140.4240  142.6774  166.2845 C.3     1  UNL1        0.0908
      8 C         140.0414  143.4020  165.0282 C.3     1  UNL1        0.0215
      9 C         139.8090  144.2885  163.4484 C.3     1  UNL1        0.0092
     10 O         139.1487  146.6683  161.0695 O.2     1  UNL1       -0.2749
     11 C         140.1772  145.5774  161.0225 C.2     1  UNL1        0.2252
     12 N         140.8229  145.2111  159.7191 N.am    1  UNL1       -0.2767
     13 C         141.8513  144.1202  159.6721 C.3     1  UNL1        0.1107
     14 C         142.4971  143.7539  158.3686 C.3     1  UNL1        0.0939
     15 N         142.1145  144.4786  157.1123 N.3     1  UNL1       -0.2711
     16 C         141.0861  145.5695  157.1594 C.3     1  UNL1        0.0939
     17 C         140.4403  145.9358  158.4627 C.3     1  UNL1        0.1107
     18 C         142.7603  144.1123  155.8090 C.3     1  UNL1        0.0576
     19 C         142.9643  144.8055  154.4945 C.3     1  UNL1        0.0160
     20 C         143.6736  143.5943  153.9656 C.3     1  UNL1        0.0028
     21 C         143.4696  142.9010  155.2801 C.3     1  UNL1        0.0160
     22 C         142.2489  141.6537  167.8246 C.ar    1  UNL1        0.0478
     23 C         141.7342  140.2677  168.0774 C.ar    1  UNL1        0.0145
     24 C         142.1169  139.5430  169.3337 C.ar    1  UNL1        0.0013
     25 C         143.0143  140.2044  170.3373 C.ar    1  UNL1        0.0001
     26 C         143.5291  141.5905  170.0845 C.ar    1  UNL1        0.0013
     27 C         143.1464  142.3151  168.8282 C.ar    1  UNL1        0.0145
@<TRIPOS>BOND
     1    10    11    2
     2    11     1    1
     3     1     2    1
     4     2     3    1
     5     3     4    1
     6     4     5    1
     7     5     6    1
     8     6    22    1
     9    22    23   ar
    10    23    24   ar
    11    24    25   ar
    12    25    26   ar
    13    26    27   ar
    14     6     7    1
    15     7     8    1
    16     3     9    1
    17    11    12   am
    18    12    13    1
    19    13    14    1
    20    14    15    1
    21    15    18    1
    22    18    19    1
    23    19    20    1
    24    20    21    1
    25    15    16    1
    26    16    17    1
    27     9     1    1
    28    17    12    1
    29     8     3    1
    30    21    18    1
    31    27    22   ar
@<TRIPOS>MOLECULE
*****
 27 31 0 0 0
SMALL
GASTEIGER

@<TRIPOS>ATOM
      1 C         142.5786  142.6835  161.3128 C.3     1  UNL1        0.0767
      2 C         141.4879  141.8782  161.9545 C.3     1  UNL1        0.0092
      3 C         141.9040  142.3886  163.3023 C.3     1  UNL1        0.0042
      4 C         140.7427  141.4787  163.5733 C.3     1  UNL1        0.0215
      5 C         140.2657  141.2703  164.9801 C.3     1  UNL1        0.0908
      6 N         140.9500  141.9717  166.1158 N.pl3   1  UNL1       -0.3075
      7 C         142.1112  142.8816  165.8447 C.3     1  UNL1        0.0908
      8 C         142.5882  143.0901  164.4380 C.3     1  UNL1        0.0215
      9 C         142.9947  143.1939  162.6605 C.3     1  UNL1        0.0092
     10 O         144.2708  142.1653  159.4107 O.2     1  UNL1       -0.2749
     11 C         143.0556  142.8920  159.9060 C.2     1  UNL1        0.2252
     12 N         142.3175  143.8271  158.9947 N.am    1  UNL1       -0.2767
     13 C         141.1024  144.5537  159.4900 C.3     1  UNL1        0.1107
     14 C         140.3642  145.4889  158.5786 C.3     1  UNL1        0.0939
     15 N         140.8412  145.6974  157.1718 N.3     1  UNL1       -0.2711
     16 C         142.0564  144.9707  156.6765 C.3     1  UNL1        0.0939
     17 C         142.7945  144.0356  157.5878 C.3     1  UNL1        0.1107
     18 C         140.1031  146.6325  156.2605 C.3     1  UNL1        0.0576
     19 C         140.2136  147.0106  154.8131 C.3     1  UNL1        0.0160
     20 C         139.0591  147.9551  154.9715 C.3     1  UNL1        0.0028
     21 C         138.9486  147.5770  156.4189 C.3     1  UNL1        0.0160
     22 C         140.4729  141.7632  167.5226 C.ar    1  UNL1        0.0478
     23 C         139.8325  140.4641  167.9126 C.ar    1  UNL1        0.0145
     24 C         139.3554  140.2556  169.3194 C.ar    1  UNL1        0.0013
     25 C         139.5188  141.3462  170.3361 C.ar    1  UNL1        0.0001
     26 C         140.1592  142.6454  169.9460 C.ar    1  UNL1        0.0013
     27 C         140.6363  142.8539  168.5393 C.ar    1  UNL1        0.0145
@<TRIPOS>BOND
     1    10    11    2
     2    11     1    1
     3     1     2    1
     4     2     3    1
     5     3     4    1
     6     4     5    1
     7     5     6    1
     8     6    22    1
     9    22    23   ar
    10    23    24   ar
    11    24    25   ar
    12    25    26   ar
    13    26    27   ar
    14     6     7    1
    15     7     8    1
    16     3     9    1
    17    11    12   am
    18    12    13    1
    19    13    14    1
    20    14    15    1
    21    15    18    1
    22    18    19    1
    23    19    20    1
    24    20    21    1
    25    15    16    1
    26    16    17    1
    27     9     1    1
    28    17    12    1
    29     8     3    1
    30    21    18    1
    31    27    22   ar
@<TRIPOS>MOLECULE
*****
 27 31 0 0 0
SMALL
GASTEIGER

@<TRIPOS>ATOM
      1 C         143.2987  141.7231  160.9045 C.3     1  UNL1        0.0767
      2 C         142.0762  141.9961  161.7297 C.3     1  UNL1        0.0092
      3 C         142.9084  141.9536  162.9769 C.3     1  UNL1        0.0042
      4 C         141.5121  142.2283  163.4511 C.3     1  UNL1        0.0215
      5 C         141.2362  142.3912  164.9165 C.3     1  UNL1        0.0908
      6 N         142.3565  142.2796  165.9076 N.pl3   1  UNL1       -0.3075
      7 C         143.7528  142.0050  165.4334 C.3     1  UNL1        0.0908
      8 C         144.0288  141.8420  163.9681 C.3     1  UNL1        0.0215
      9 C         144.1310  141.6807  162.1518 C.3     1  UNL1        0.0092
     10 O         144.0571  142.7290  158.6323 O.2     1  UNL1       -0.2749
     11 C         143.5747  141.5601  159.4392 C.2     1  UNL1        0.2252
     12 N         143.3682  140.2283  158.7808 N.am    1  UNL1       -0.2767
     13 C         142.8858  139.0595  159.5877 C.3     1  UNL1        0.1107
     14 C         142.6794  137.7276  158.9292 C.3     1  UNL1        0.0939
     15 N         142.9553  137.5646  157.4639 N.3     1  UNL1       -0.2711
     16 C         143.4377  138.7334  156.6569 C.3     1  UNL1        0.0939
     17 C         143.6442  140.0653  157.3154 C.3     1  UNL1        0.1107
     18 C         142.7489  136.2328  156.8054 C.3     1  UNL1        0.0576
     19 C         141.7441  135.6686  155.8451 C.3     1  UNL1        0.0160
     20 C         142.4569  134.3491  155.8743 C.3     1  UNL1        0.0028
     21 C         143.4617  134.9133  156.8346 C.3     1  UNL1        0.0160
     22 C         142.0805  142.4426  167.3730 C.ar    1  UNL1        0.0478
     23 C         143.1973  142.3109  168.3657 C.ar    1  UNL1        0.0145
     24 C         142.9213  142.4739  169.8311 C.ar    1  UNL1        0.0013
     25 C         141.5285  142.7686  170.3037 C.ar    1  UNL1        0.0001
     26 C         140.4117  142.9004  169.3109 C.ar    1  UNL1        0.0013
     27 C         140.6878  142.7374  167.8456 C.ar    1  UNL1        0.0145
@<TRIPOS>BOND
     1    10    11    2
     2    11     1    1
     3     1     2    1
     4     2     3    1
     5     3     4    1
     6     4     5    1
     7     5     6    1
     8     6    22    1
     9    22    23   ar
    10    23    24   ar
    11    24    25   ar
    12    25    26   ar
    13    26    27   ar
    14     6     7    1
    15     7     8    1
    16     3     9    1
    17    11    12   am
    18    12    13    1
    19    13    14    1
    20    14    15    1
    21    15    18    1
    22    18    19    1
    23    19    20    1
    24    20    21    1
    25    15    16    1
    26    16    17    1
    27     9     1    1
    28    17    12    1
    29     8     3    1
    30    21    18    1
    31    27    22   ar
@<TRIPOS>MOLECULE
*****
 27 31 0 0 0
SMALL
GASTEIGER

@<TRIPOS>ATOM
      1 C         139.1779  141.7733  161.3561 C.3     1  UNL1        0.0767
      2 C         138.7369  142.5327  162.5721 C.3     1  UNL1        0.0092
      3 C         139.9195  142.0059  163.3300 C.3     1  UNL1        0.0042
      4 C         139.1874  142.8758  164.3085 C.3     1  UNL1        0.0215
      5 C         139.7117  143.0403  165.7041 C.3     1  UNL1        0.0908
      6 N         140.9681  142.3349  166.1214 N.pl3   1  UNL1       -0.3075
      7 C         141.7001  141.4651  165.1429 C.3     1  UNL1        0.0908
      8 C         141.1758  141.3006  163.7472 C.3     1  UNL1        0.0215
      9 C         140.3604  141.2466  162.1139 C.3     1  UNL1        0.0092
     10 O         137.8294  140.4067  159.6056 O.2     1  UNL1       -0.2749
     11 C         138.6536  141.6088  159.9604 C.2     1  UNL1        0.2252
     12 N         138.9534  142.6463  158.9195 N.am    1  UNL1       -0.2767
     13 C         139.7776  143.8483  159.2742 C.3     1  UNL1        0.1107
     14 C         140.0774  144.8859  158.2332 C.3     1  UNL1        0.0939
     15 N         139.5531  144.7214  156.8375 N.3     1  UNL1       -0.2711
     16 C         138.7289  143.5194  156.4828 C.3     1  UNL1        0.0939
     17 C         138.4291  142.4818  157.5237 C.3     1  UNL1        0.1107
     18 C         139.8529  145.7590  155.7966 C.3     1  UNL1        0.0576
     19 C         140.9921  146.0198  154.8562 C.3     1  UNL1        0.0160
     20 C         140.2770  147.2264  154.3244 C.3     1  UNL1        0.0028
     21 C         139.1378  146.9655  155.2649 C.3     1  UNL1        0.0160
     22 C         141.4924  142.4995  167.5171 C.ar    1  UNL1        0.0478
     23 C         142.9130  142.1356  167.8324 C.ar    1  UNL1        0.0145
     24 C         143.4373  142.3002  169.2282 C.ar    1  UNL1        0.0013
     25 C         142.5410  142.8286  170.3086 C.ar    1  UNL1        0.0001
     26 C         141.1203  143.1924  169.9933 C.ar    1  UNL1        0.0013
     27 C         140.5960  143.0279  168.5976 C.ar    1  UNL1        0.0145
@<TRIPOS>BOND
     1    10    11    2
     2    11     1    1
     3     1     2    1
     4     2     3    1
     5     3     4    1
     6     4     5    1
     7     5     6    1
     8     6    22    1
     9    22    23   ar
    10    23    24   ar
    11    24    25   ar
    12    25    26   ar
    13    26    27   ar
    14     6     7    1
    15     7     8    1
    16     3     9    1
    17    11    12   am
    18    12    13    1
    19    13    14    1
    20    14    15    1
    21    15    18    1
    22    18    19    1
    23    19    20    1
    24    20    21    1
    25    15    16    1
    26    16    17    1
    27     9     1    1
    28    17    12    1
    29     8     3    1
    30    21    18    1
    31    27    22   ar
@<TRIPOS>MOLECULE
*****
 27 31 0 0 0
SMALL
GASTEIGER

@<TRIPOS>ATOM
      1 C         143.3897  140.8752  160.9781 C.3     1  UNL1        0.0767
      2 C         144.0505  140.2994  162.1954 C.3     1  UNL1        0.0092
      3 C         142.8312  140.6190  163.0086 C.3     1  UNL1        0.0042
      4 C         143.7852  139.9802  163.9739 C.3     1  UNL1        0.0215
      5 C         143.3903  139.7990  165.4096 C.3     1  UNL1        0.0908
      6 N         142.0415  140.2567  165.8800 N.pl3   1  UNL1       -0.3075
      7 C         141.0876  140.8955  164.9147 C.3     1  UNL1        0.0908
      8 C         141.4824  141.0767  163.4790 C.3     1  UNL1        0.0215
      9 C         142.1704  141.1947  161.7913 C.3     1  UNL1        0.0092
     10 O         144.3775  142.3564  159.0860 O.2     1  UNL1       -0.2749
     11 C         143.7846  141.0563  159.5425 C.2     1  UNL1        0.2252
     12 N         143.5865  139.9375  158.5633 N.am    1  UNL1       -0.2767
     13 C         142.9935  138.6375  159.0198 C.3     1  UNL1        0.1107
     14 C         142.7954  137.5186  158.0405 C.3     1  UNL1        0.0939
     15 N         143.1903  137.6997  156.6048 N.3     1  UNL1       -0.2711
     16 C         143.7833  138.9997  156.1483 C.3     1  UNL1        0.0939
     17 C         143.9814  140.1186  157.1275 C.3     1  UNL1        0.1107
     18 C         142.9922  136.5809  155.6256 C.3     1  UNL1        0.0576
     19 C         142.4129  136.4683  154.2466 C.3     1  UNL1        0.0160
     20 C         142.7121  134.9984  154.2408 C.3     1  UNL1        0.0028
     21 C         143.2914  135.1110  155.6198 C.3     1  UNL1        0.0160
     22 C         141.6466  140.0755  167.3157 C.ar    1  UNL1        0.0478
     23 C         140.2681  140.4560  167.7682 C.ar    1  UNL1        0.0145
     24 C         139.8732  140.2748  169.2040 C.ar    1  UNL1        0.0013
     25 C         140.8570  139.7132  170.1872 C.ar    1  UNL1        0.0001
     26 C         142.2356  139.3327  169.7347 C.ar    1  UNL1        0.0013
     27 C         142.6304  139.5139  168.2990 C.ar    1  UNL1        0.0145
@<TRIPOS>BOND
     1    10    11    2
     2    11     1    1
     3     1     2    1
     4     2     3    1
     5     3     4    1
     6     4     5    1
     7     5     6    1
     8     6    22    1
     9    22    23   ar
    10    23    24   ar
    11    24    25   ar
    12    25    26   ar
    13    26    27   ar
    14     6     7    1
    15     7     8    1
    16     3     9    1
    17    11    12   am
    18    12    13    1
    19    13    14    1
    20    14    15    1
    21    15    18    1
    22    18    19    1
    23    19    20    1
    24    20    21    1
    25    15    16    1
    26    16    17    1
    27     9     1    1
    28    17    12    1
    29     8     3    1
    30    21    18    1
    31    27    22   ar
@<TRIPOS>MOLECULE
*****
 27 31 0 0 0
SMALL
GASTEIGER

@<TRIPOS>ATOM
      1 C         141.5210  138.4624  157.5692 C.3     1  UNL1        0.0767
      2 C         141.1333  138.6221  159.0094 C.3     1  UNL1        0.0092
      3 C         142.1138  139.7487  159.1486 C.3     1  UNL1        0.0042
      4 C         141.4855  139.6113  160.5037 C.3     1  UNL1        0.0215
      5 C         141.9047  140.5208  161.6204 C.3     1  UNL1        0.0908
      6 N         142.9522  141.5676  161.3820 N.pl3   1  UNL1       -0.3075
      7 C         143.5805  141.7050  160.0269 C.3     1  UNL1        0.0908
      8 C         143.1613  140.7955  158.9102 C.3     1  UNL1        0.0215
      9 C         142.5015  139.5890  157.7084 C.3     1  UNL1        0.0092
     10 O         139.9905  137.9598  155.5309 O.2     1  UNL1       -0.2749
     11 C         141.1018  137.5529  156.4525 C.2     1  UNL1        0.2252
     12 N         141.7939  136.2365  156.2575 N.am    1  UNL1       -0.2767
     13 C         142.9053  135.8297  157.1791 C.3     1  UNL1        0.1107
     14 C         143.5974  134.5132  156.9840 C.3     1  UNL1        0.0939
     15 N         143.1782  133.6037  155.8673 N.3     1  UNL1       -0.2711
     16 C         142.0669  134.0106  154.9457 C.3     1  UNL1        0.0939
     17 C         141.3748  135.3270  155.1407 C.3     1  UNL1        0.1107
     18 C         143.8704  132.2874  155.6722 C.3     1  UNL1        0.0576
     19 C         145.0289  131.5914  156.3230 C.3     1  UNL1        0.0160
     20 C         144.8492  130.4256  155.3964 C.3     1  UNL1        0.0028
     21 C         143.6906  131.1216  154.7456 C.3     1  UNL1        0.0160
     22 C         143.3714  142.4772  162.4988 C.ar    1  UNL1        0.0478
     23 C         143.2296  143.9629  162.3494 C.ar    1  UNL1        0.0145
     24 C         143.6488  144.8724  163.4661 C.ar    1  UNL1        0.0013
     25 C         144.2097  144.2961  164.7323 C.ar    1  UNL1        0.0001
     26 C         144.3515  142.8103  164.8817 C.ar    1  UNL1        0.0013
     27 C         143.9323  141.9008  163.7649 C.ar    1  UNL1        0.0145
@<TRIPOS>BOND
     1    10    11    2
     2    11     1    1
     3     1     2    1
     4     2     3    1
     5     3     4    1
     6     4     5    1
     7     5     6    1
     8     6    22    1
     9    22    23   ar
    10    23    24   ar
    11    24    25   ar
    12    25    26   ar
    13    26    27   ar
    14     6     7    1
    15     7     8    1
    16     3     9    1
    17    11    12   am
    18    12    13    1
    19    13    14    1
    20    14    15    1
    21    15    18    1
    22    18    19    1
    23    19    20    1
    24    20    21    1
    25    15    16    1
    26    16    17    1
    27     9     1    1
    28    17    12    1
    29     8     3    1
    30    21    18    1
    31    27    22   ar
@<TRIPOS>MOLECULE
*****
 27 31 0 0 0
SMALL
GASTEIGER

@<TRIPOS>ATOM
      1 C         141.5855  141.4995  160.9711 C.3     1  UNL1        0.0767
      2 C         142.1285  142.2465  162.1530 C.3     1  UNL1        0.0092
      3 C         141.1618  141.5311  163.0495 C.3     1  UNL1        0.0042
      4 C         141.9365  142.4379  163.9591 C.3     1  UNL1        0.0215
      5 C         141.6369  142.4602  165.4287 C.3     1  UNL1        0.0908
      6 N         140.5626  141.5758  165.9886 N.pl3   1  UNL1       -0.3075
      7 C         139.7878  140.6690  165.0790 C.3     1  UNL1        0.0908
      8 C         140.0874  140.6466  163.6094 C.3     1  UNL1        0.0215
      9 C         140.6188  140.7840  161.8675 C.3     1  UNL1        0.0092
     10 O         141.8350  142.7481  158.7064 O.2     1  UNL1       -0.2749
     11 C         141.8851  141.4771  159.5015 C.2     1  UNL1        0.2252
     12 N         142.2348  140.1838  158.8270 N.am    1  UNL1       -0.2767
     13 C         142.2849  138.9128  159.6221 C.3     1  UNL1        0.1107
     14 C         142.6347  137.6195  158.9475 C.3     1  UNL1        0.0939
     15 N         142.9343  137.5971  157.4779 N.3     1  UNL1       -0.2711
     16 C         142.8842  138.8681  156.6828 C.3     1  UNL1        0.0939
     17 C         142.5344  140.1614  157.3573 C.3     1  UNL1        0.1107
     18 C         143.2840  136.3038  156.8034 C.3     1  UNL1        0.0576
     19 C         143.2651  134.8588  157.2054 C.3     1  UNL1        0.0160
     20 C         143.7786  134.4747  155.8494 C.3     1  UNL1        0.0028
     21 C         143.7975  135.9197  155.4474 C.3     1  UNL1        0.0160
     22 C         140.2630  141.5981  167.4583 C.ar    1  UNL1        0.0478
     23 C         139.6591  140.3945  168.1190 C.ar    1  UNL1        0.0145
     24 C         139.3596  140.4169  169.5887 C.ar    1  UNL1        0.0013
     25 C         139.6638  141.6429  170.3975 C.ar    1  UNL1        0.0001
     26 C         140.2677  142.8466  169.7367 C.ar    1  UNL1        0.0013
     27 C         140.5673  142.8242  168.2671 C.ar    1  UNL1        0.0145
@<TRIPOS>BOND
     1    10    11    2
     2    11     1    1
     3     1     2    1
     4     2     3    1
     5     3     4    1
     6     4     5    1
     7     5     6    1
     8     6    22    1
     9    22    23   ar
    10    23    24   ar
    11    24    25   ar
    12    25    26   ar
    13    26    27   ar
    14     6     7    1
    15     7     8    1
    16     3     9    1
    17    11    12   am
    18    12    13    1
    19    13    14    1
    20    14    15    1
    21    15    18    1
    22    18    19    1
    23    19    20    1
    24    20    21    1
    25    15    16    1
    26    16    17    1
    27     9     1    1
    28    17    12    1
    29     8     3    1
    30    21    18    1
    31    27    22   ar
