@<TRIPOS>MOLECULE
*****
 34 37 0 0 0
SMALL
GASTEIGER

@<TRIPOS>ATOM
      1 C         140.4523  142.0670  167.8340 C.3     1  UNL1        0.1219
      2 C         140.5505  142.6284  166.4465 C.ar    1  UNL1       -0.0121
      3 C         139.3300  143.1837  165.7741 C.ar    1  UNL1       -0.0037
      4 C         139.4281  143.7452  164.3866 C.ar    1  UNL1       -0.0003
      5 C         140.7467  143.7514  163.6716 C.ar    1  UNL1        0.0013
      6 C         141.9672  143.1961  164.3440 C.ar    1  UNL1       -0.0003
      7 C         141.8691  142.6346  165.7315 C.ar    1  UNL1       -0.0037
      8 C         140.8448  144.3129  162.2840 C.2     1  UNL1        0.0162
      9 C         141.8325  143.7399  161.3112 C.2     1  UNL1        0.0862
     10 N         141.9306  144.3013  159.9237 N.pl3   1  UNL1       -0.1881
     11 N         142.8016  143.9445  158.7558 N.2     1  UNL1       -0.1584
     12 C         142.4505  144.8583  157.6194 C.2     1  UNL1        0.1807
     13 N         141.3625  145.7800  158.0849 N.pl3   1  UNL1       -0.2959
     14 C         141.0411  145.4358  159.5091 C.3     1  UNL1        0.1920
     15 C         140.0536  146.0087  160.4819 C.2     1  UNL1        0.0156
     16 C         139.9554  145.4473  161.8693 C.2     1  UNL1        0.0002
     17 H         140.9344  146.4868  157.5497 H       1  UNL1        0.1501
     18 C         142.7331  143.4154  170.7885 C.3     1  UNL1        0.1149
     19 N         142.2641  142.6052  169.6166 N.am    1  UNL1       -0.2757
     20 C         143.1379  141.5228  169.0553 C.3     1  UNL1        0.1149
     21 C         140.9213  142.8773  169.0059 C.2     1  UNL1        0.2312
     22 O         140.0475  143.9596  169.5672 O.2     1  UNL1       -0.2745
     23 C         139.8850  140.6952  168.0495 C.3     1  UNL1        0.1413
     24 N         139.5708  140.2232  169.4382 N.3     1  UNL1       -0.3144
     25 H         139.1960  139.2754  169.3985 H       1  UNL1        0.1193
     26 H         138.8807  140.8443  169.8605 H       1  UNL1        0.1193
     27 C         139.6320  139.7954  166.8764 C.2     1  UNL1        0.2406
     28 O         138.2317  139.5831  166.3822 O.2     1  UNL1       -0.2734
     29 N         140.7793  139.1080  166.1972 N.am    1  UNL1       -0.2756
     30 C         140.6813  138.1844  165.0193 C.3     1  UNL1        0.0964
     31 C         142.0675  137.7290  164.6709 C.3     1  UNL1        0.0585
     32 C         143.0220  138.3711  165.6335 C.3     1  UNL1        0.1824
     33 F         144.5112  138.1923  165.6499 F       1  UNL1       -0.2354
     34 C         142.2258  139.2233  166.5769 C.3     1  UNL1        0.1286
@<TRIPOS>BOND
     1    18    19    1
     2    19    20    1
     3    19    21   am
     4    21    22    2
     5     1    21    1
     6     1     2    1
     7     2     3   ar
     8     3     4   ar
     9     4     5   ar
    10     5     8    1
    11     8     9    2
    12     9    10    1
    13    10    11    1
    14    11    12    2
    15    12    13    1
    16    13    14    1
    17    14    15    1
    18    15    16    2
    19     5     6   ar
    20     6     7   ar
    21     1    23    1
    22    23    24    1
    23    23    27    1
    24    27    28    2
    25    27    29   am
    26    29    30    1
    27    30    31    1
    28    31    32    1
    29    32    33    1
    30    32    34    1
    31     7     2   ar
    32    34    29    1
    33    16     8    1
    34    14    10    1
    35    13    17    1
    36    24    25    1
    37    24    26    1
@<TRIPOS>MOLECULE
*****
 34 37 0 0 0
SMALL
GASTEIGER

@<TRIPOS>ATOM
      1 C         142.5896  141.4326  167.3887 C.3     1  UNL1        0.1219
      2 C         142.3306  142.0892  166.0652 C.ar    1  UNL1       -0.0121
      3 C         140.9292  142.4455  165.6662 C.ar    1  UNL1       -0.0037
      4 C         140.6702  143.1021  164.3427 C.ar    1  UNL1       -0.0003
      5 C         141.8125  143.4024  163.4181 C.ar    1  UNL1        0.0013
      6 C         143.2139  143.0460  163.8171 C.ar    1  UNL1       -0.0003
      7 C         143.4730  142.3894  165.1406 C.ar    1  UNL1       -0.0037
      8 C         141.5535  144.0590  162.0945 C.2     1  UNL1        0.0162
      9 C         142.4084  143.7205  160.9093 C.2     1  UNL1        0.0862
     10 N         142.1494  144.3772  159.5858 N.pl3   1  UNL1       -0.1881
     11 N         142.8208  144.2444  158.2510 N.2     1  UNL1       -0.1584
     12 C         142.1218  145.1573  157.2878 C.2     1  UNL1        0.1807
     13 N         141.0184  145.8544  158.0272 N.pl3   1  UNL1       -0.2959
     14 C         141.0355  145.3722  159.4474 C.3     1  UNL1        0.1920
     15 C         140.1806  145.7106  160.6326 C.2     1  UNL1        0.0156
     16 C         140.4396  145.0540  161.9561 C.2     1  UNL1        0.0002
     17 H         140.3929  146.5127  157.6470 H       1  UNL1        0.1501
     18 C         141.9595  143.3754  170.7913 C.3     1  UNL1        0.1149
     19 N         141.7157  142.5358  169.5725 N.am    1  UNL1       -0.2757
     20 C         140.3540  141.9599  169.3186 C.3     1  UNL1        0.1149
     21 C         142.8334  142.2721  168.6075 C.2     1  UNL1        0.2312
     22 O         144.1950  142.8480  168.8615 O.2     1  UNL1       -0.2745
     23 C         142.6047  139.9363  167.4934 C.3     1  UNL1        0.1413
     24 N         142.9911  139.2786  168.7850 N.3     1  UNL1       -0.3144
     25 H         142.9468  138.2653  168.6772 H       1  UNL1        0.1193
     26 H         142.3479  139.5706  169.5209 H       1  UNL1        0.1193
     27 C         142.2336  139.0976  166.3065 C.2     1  UNL1        0.2406
     28 O         143.2984  138.6147  165.3667 O.2     1  UNL1       -0.2734
     29 N         140.7975  138.7418  166.0592 N.am    1  UNL1       -0.2756
     30 C         140.2774  137.9154  164.9205 C.3     1  UNL1        0.0964
     31 C         138.7879  137.8127  165.0647 C.3     1  UNL1        0.0585
     32 C         138.3874  138.5757  166.2926 C.3     1  UNL1        0.1824
     33 F         136.9903  138.7363  166.8142 F       1  UNL1       -0.2354
     34 C         139.6294  139.1499  166.9072 C.3     1  UNL1        0.1286
@<TRIPOS>BOND
     1    18    19    1
     2    19    20    1
     3    19    21   am
     4    21    22    2
     5     1    21    1
     6     1     2    1
     7     2     3   ar
     8     3     4   ar
     9     4     5   ar
    10     5     8    1
    11     8     9    2
    12     9    10    1
    13    10    11    1
    14    11    12    2
    15    12    13    1
    16    13    14    1
    17    14    15    1
    18    15    16    2
    19     5     6   ar
    20     6     7   ar
    21     1    23    1
    22    23    24    1
    23    23    27    1
    24    27    28    2
    25    27    29   am
    26    29    30    1
    27    30    31    1
    28    31    32    1
    29    32    33    1
    30    32    34    1
    31     7     2   ar
    32    34    29    1
    33    16     8    1
    34    14    10    1
    35    13    17    1
    36    24    25    1
    37    24    26    1
@<TRIPOS>MOLECULE
*****
 34 37 0 0 0
SMALL
GASTEIGER

@<TRIPOS>ATOM
      1 C         142.1862  143.1961  161.2377 C.3     1  UNL1        0.1219
      2 C         142.3476  142.7621  162.6644 C.ar    1  UNL1       -0.0121
      3 C         143.2365  143.5401  163.5890 C.ar    1  UNL1       -0.0037
      4 C         143.3979  143.1061  165.0157 C.ar    1  UNL1       -0.0003
      5 C         142.6704  141.8943  165.5179 C.ar    1  UNL1        0.0013
      6 C         141.7816  141.1163  164.5934 C.ar    1  UNL1       -0.0003
      7 C         141.6202  141.5503  163.1666 C.ar    1  UNL1       -0.0037
      8 C         142.8319  141.4603  166.9448 C.2     1  UNL1        0.0162
      9 C         142.7846  140.0025  167.2952 C.2     1  UNL1        0.0862
     10 N         142.9460  139.5686  168.7220 N.pl3   1  UNL1       -0.1881
     11 N         142.9442  138.2135  169.3652 N.2     1  UNL1       -0.1584
     12 C         143.1518  138.3998  170.8390 C.2     1  UNL1        0.1807
     13 N         143.2818  139.8700  171.1067 N.pl3   1  UNL1       -0.2959
     14 C         143.1547  140.5924  169.7982 C.3     1  UNL1        0.1920
     15 C         143.2019  142.0501  169.4477 C.2     1  UNL1        0.0156
     16 C         143.0405  142.4840  168.0210 C.2     1  UNL1        0.0002
     17 H         143.4255  140.2876  171.9866 H       1  UNL1        0.1501
     18 C         143.5619  140.9111  158.2990 C.3     1  UNL1        0.1149
     19 N         142.6558  141.4647  159.3585 N.am    1  UNL1       -0.2757
     20 C         141.3131  140.8404  159.5981 C.3     1  UNL1        0.1149
     21 C         143.0924  142.6425  160.1783 C.2     1  UNL1        0.2312
     22 O         144.4351  143.2668  159.9386 O.2     1  UNL1       -0.2745
     23 C         141.1187  144.1838  160.8704 C.3     1  UNL1        0.1413
     24 N         141.4950  145.5093  160.2776 N.3     1  UNL1       -0.3144
     25 H         140.6506  146.0502  160.0907 H       1  UNL1        0.1193
     26 H         142.0030  145.3599  159.4058 H       1  UNL1        0.1193
     27 C         139.6747  143.8458  161.0958 C.2     1  UNL1        0.2406
     28 O         138.8563  143.2684  159.9792 O.2     1  UNL1       -0.2734
     29 N         139.0491  144.0854  162.4380 N.am    1  UNL1       -0.2756
     30 C         137.6247  143.7986  162.8106 C.3     1  UNL1        0.0964
     31 C         137.4334  144.1897  164.2461 C.3     1  UNL1        0.0585
     32 C         138.7396  144.7182  164.7605 C.3     1  UNL1        0.1824
     33 F         139.0011  145.2226  166.1487 F       1  UNL1       -0.2354
     34 C         139.7381  144.6537  163.6431 C.3     1  UNL1        0.1286
@<TRIPOS>BOND
     1    18    19    1
     2    19    20    1
     3    19    21   am
     4    21    22    2
     5     1    21    1
     6     1     2    1
     7     2     3   ar
     8     3     4   ar
     9     4     5   ar
    10     5     8    1
    11     8     9    2
    12     9    10    1
    13    10    11    1
    14    11    12    2
    15    12    13    1
    16    13    14    1
    17    14    15    1
    18    15    16    2
    19     5     6   ar
    20     6     7   ar
    21     1    23    1
    22    23    24    1
    23    23    27    1
    24    27    28    2
    25    27    29   am
    26    29    30    1
    27    30    31    1
    28    31    32    1
    29    32    33    1
    30    32    34    1
    31     7     2   ar
    32    34    29    1
    33    16     8    1
    34    14    10    1
    35    13    17    1
    36    24    25    1
    37    24    26    1
@<TRIPOS>MOLECULE
*****
 34 37 0 0 0
SMALL
GASTEIGER

@<TRIPOS>ATOM
      1 C         139.7651  143.6317  161.5017 C.3     1  UNL1        0.1219
      2 C         140.0819  143.2975  162.9293 C.ar    1  UNL1       -0.0121
      3 C         138.9715  143.0176  163.8981 C.ar    1  UNL1       -0.0037
      4 C         139.2882  142.6834  165.3257 C.ar    1  UNL1       -0.0003
      5 C         140.7153  142.6291  165.7844 C.ar    1  UNL1        0.0013
      6 C         141.8257  142.9090  164.8156 C.ar    1  UNL1       -0.0003
      7 C         141.5090  143.2432  163.3880 C.ar    1  UNL1       -0.0037
      8 C         141.0321  142.2949  167.2121 C.2     1  UNL1        0.0162
      9 C         141.9383  141.1424  167.5293 C.2     1  UNL1        0.0862
     10 N         142.2550  140.8082  168.9568 N.pl3   1  UNL1       -0.1881
     11 N         143.1086  139.7390  169.5717 N.2     1  UNL1       -0.1584
     12 C         143.0467  139.8965  171.0621 C.2     1  UNL1        0.1807
     13 N         142.1549  141.0631  171.3684 N.pl3   1  UNL1       -0.2959
     14 C         141.6655  141.6265  170.0672 C.3     1  UNL1        0.1920
     15 C         140.7594  142.7790  169.7500 C.2     1  UNL1        0.0156
     16 C         140.4427  143.1132  168.3224 C.2     1  UNL1        0.0002
     17 H         141.9301  141.3998  172.2658 H       1  UNL1        0.1501
     18 C         138.8576  140.5309  159.1972 C.3     1  UNL1        0.1149
     19 N         139.6498  141.4909  160.0342 N.am    1  UNL1       -0.2757
     20 C         141.1191  141.2701  160.2407 C.3     1  UNL1        0.1149
     21 C         138.9729  142.6717  160.6647 C.2     1  UNL1        0.2312
     22 O         137.5036  142.8924  160.4582 O.2     1  UNL1       -0.2745
     23 C         140.2406  144.9260  160.9111 C.3     1  UNL1        0.1413
     24 N         139.5988  146.2182  161.3211 N.3     1  UNL1       -0.3144
     25 H         140.0429  146.9909  160.8250 H       1  UNL1        0.1193
     26 H         139.7114  146.3499  162.3263 H       1  UNL1        0.1193
     27 C         141.3581  144.9280  159.9105 C.2     1  UNL1        0.2406
     28 O         142.7165  144.4262  160.3020 O.2     1  UNL1       -0.2734
     29 N         141.1173  145.4317  158.5183 N.am    1  UNL1       -0.2756
     30 C         142.1321  145.4944  157.4155 C.3     1  UNL1        0.0964
     31 C         141.4614  146.0627  156.2000 C.3     1  UNL1        0.0585
     32 C         140.0320  146.3512  156.5517 C.3     1  UNL1        0.1824
     33 F         138.9970  146.9283  155.6321 F       1  UNL1       -0.2354
     34 C         139.8193  145.9612  157.9845 C.3     1  UNL1        0.1286
@<TRIPOS>BOND
     1    18    19    1
     2    19    20    1
     3    19    21   am
     4    21    22    2
     5     1    21    1
     6     1     2    1
     7     2     3   ar
     8     3     4   ar
     9     4     5   ar
    10     5     8    1
    11     8     9    2
    12     9    10    1
    13    10    11    1
    14    11    12    2
    15    12    13    1
    16    13    14    1
    17    14    15    1
    18    15    16    2
    19     5     6   ar
    20     6     7   ar
    21     1    23    1
    22    23    24    1
    23    23    27    1
    24    27    28    2
    25    27    29   am
    26    29    30    1
    27    30    31    1
    28    31    32    1
    29    32    33    1
    30    32    34    1
    31     7     2   ar
    32    34    29    1
    33    16     8    1
    34    14    10    1
    35    13    17    1
    36    24    25    1
    37    24    26    1
@<TRIPOS>MOLECULE
*****
 34 37 0 0 0
SMALL
GASTEIGER

@<TRIPOS>ATOM
      1 C         143.4233  141.0216  160.9974 C.3     1  UNL1        0.1219
      2 C         143.1802  140.8917  162.4718 C.ar    1  UNL1       -0.0121
      3 C         142.3034  141.8833  163.1775 C.ar    1  UNL1       -0.0037
      4 C         142.0602  141.7534  164.6520 C.ar    1  UNL1       -0.0003
      5 C         142.6939  140.6320  165.4207 C.ar    1  UNL1        0.0013
      6 C         143.5707  139.6405  164.7150 C.ar    1  UNL1       -0.0003
      7 C         143.8139  139.7703  163.2406 C.ar    1  UNL1       -0.0037
      8 C         142.4507  140.5022  166.8952 C.2     1  UNL1        0.0162
      9 C         141.8150  141.6302  167.6527 C.2     1  UNL1        0.0862
     10 N         141.5719  141.5003  169.1272 N.pl3   1  UNL1       -0.1881
     11 N         140.9681  142.4370  170.1311 N.2     1  UNL1       -0.1584
     12 C         140.9874  141.7581  171.4686 C.2     1  UNL1        0.1807
     13 N         141.6031  140.4019  171.2912 N.pl3   1  UNL1       -0.2959
     14 C         141.9643  140.2425  169.8441 C.3     1  UNL1        0.1920
     15 C         142.6000  139.1146  169.0866 C.2     1  UNL1        0.0156
     16 C         142.8431  139.2445  167.6122 C.2     1  UNL1        0.0002
     17 H         141.7451  139.7336  172.0001 H       1  UNL1        0.1501
     18 C         141.2131  138.6784  158.6792 C.3     1  UNL1        0.1149
     19 N         141.6078  139.7904  159.6054 N.am    1  UNL1       -0.2757
     20 C         140.5817  140.7830  160.0655 C.3     1  UNL1        0.1149
     21 C         143.0286  139.9097  160.0713 C.2     1  UNL1        0.2312
     22 O         144.0547  138.9170  159.6111 O.2     1  UNL1       -0.2745
     23 C         144.0612  142.2636  160.4490 C.3     1  UNL1        0.1413
     24 N         145.2254  142.8861  161.1611 N.3     1  UNL1       -0.3144
     25 H         145.5305  143.7162  160.6529 H       1  UNL1        0.1193
     26 H         145.9926  142.2156  161.2091 H       1  UNL1        0.1193
     27 C         143.5348  142.8831  159.1884 C.2     1  UNL1        0.2406
     28 O         144.1181  142.4956  157.8618 O.2     1  UNL1       -0.2734
     29 N         142.4250  143.8901  159.2543 N.am    1  UNL1       -0.2756
     30 C         141.7993  144.5903  158.0846 C.3     1  UNL1        0.0964
     31 C         140.7336  145.5067  158.6088 C.3     1  UNL1        0.0585
     32 C         140.7008  145.3727  160.1025 C.3     1  UNL1        0.1824
     33 F         139.7836  146.1087  161.0337 F       1  UNL1       -0.2354
     34 C         141.7461  144.3736  160.5014 C.3     1  UNL1        0.1286
@<TRIPOS>BOND
     1    18    19    1
     2    19    20    1
     3    19    21   am
     4    21    22    2
     5     1    21    1
     6     1     2    1
     7     2     3   ar
     8     3     4   ar
     9     4     5   ar
    10     5     8    1
    11     8     9    2
    12     9    10    1
    13    10    11    1
    14    11    12    2
    15    12    13    1
    16    13    14    1
    17    14    15    1
    18    15    16    2
    19     5     6   ar
    20     6     7   ar
    21     1    23    1
    22    23    24    1
    23    23    27    1
    24    27    28    2
    25    27    29   am
    26    29    30    1
    27    30    31    1
    28    31    32    1
    29    32    33    1
    30    32    34    1
    31     7     2   ar
    32    34    29    1
    33    16     8    1
    34    14    10    1
    35    13    17    1
    36    24    25    1
    37    24    26    1
@<TRIPOS>MOLECULE
*****
 34 37 0 0 0
SMALL
GASTEIGER

@<TRIPOS>ATOM
      1 C         140.6739  143.0666  160.6132 C.3     1  UNL1        0.1219
      2 C         140.5524  142.6948  162.0613 C.ar    1  UNL1       -0.0121
      3 C         139.3788  143.1747  162.8629 C.ar    1  UNL1       -0.0037
      4 C         139.2572  142.8030  164.3110 C.ar    1  UNL1       -0.0003
      5 C         140.3092  141.9513  164.9575 C.ar    1  UNL1        0.0013
      6 C         141.4828  141.4714  164.1560 C.ar    1  UNL1       -0.0003
      7 C         141.6044  141.8432  162.7079 C.ar    1  UNL1       -0.0037
      8 C         140.1876  141.5795  166.4057 C.2     1  UNL1        0.0162
      9 C         140.7787  142.4677  167.4602 C.2     1  UNL1        0.0862
     10 N         140.6571  142.0959  168.9083 N.pl3   1  UNL1       -0.1881
     11 N         141.1351  142.7688  170.1608 N.2     1  UNL1       -0.1584
     12 C         140.7179  141.9247  171.3285 C.2     1  UNL1        0.1807
     13 N         139.9821  140.7303  170.7977 N.pl3   1  UNL1       -0.2959
     14 C         139.9445  140.8360  169.3019 C.3     1  UNL1        0.1920
     15 C         139.3535  139.9480  168.2474 C.2     1  UNL1        0.0156
     16 C         139.4751  140.3197  166.7993 C.2     1  UNL1        0.0002
     17 H         139.5923  140.0043  171.3364 H       1  UNL1        0.1501
     18 C         139.3290  140.4484  157.9513 C.3     1  UNL1        0.1149
     19 N         140.2094  141.1075  158.9714 N.am    1  UNL1       -0.2757
     20 C         141.5058  140.4664  159.3695 C.3     1  UNL1        0.1149
     21 C         139.7935  142.4076  159.5932 C.2     1  UNL1        0.2312
     22 O         138.4971  143.0486  159.1950 O.2     1  UNL1       -0.2745
     23 C         141.6759  144.0976  160.1851 C.3     1  UNL1        0.1413
     24 N         142.1953  145.0959  161.1768 N.3     1  UNL1       -0.3144
     25 H         142.8625  145.7158  160.7175 H       1  UNL1        0.1193
     26 H         142.6580  144.6057  161.9423 H       1  UNL1        0.1193
     27 C         142.1584  144.1301  158.7652 C.2     1  UNL1        0.2406
     28 O         143.3416  143.3038  158.3559 O.2     1  UNL1       -0.2734
     29 N         141.4578  144.9889  157.7545 N.am    1  UNL1       -0.2756
     30 C         141.8240  145.1230  156.3061 C.3     1  UNL1        0.0964
     31 C         140.8604  146.0814  155.6711 C.3     1  UNL1        0.0585
     32 C         139.8987  146.5396  156.7272 C.3     1  UNL1        0.1824
     33 F         138.7667  147.5038  156.5302 F       1  UNL1       -0.2354
     34 C         140.2679  145.8645  158.0148 C.3     1  UNL1        0.1286
@<TRIPOS>BOND
     1    18    19    1
     2    19    20    1
     3    19    21   am
     4    21    22    2
     5     1    21    1
     6     1     2    1
     7     2     3   ar
     8     3     4   ar
     9     4     5   ar
    10     5     8    1
    11     8     9    2
    12     9    10    1
    13    10    11    1
    14    11    12    2
    15    12    13    1
    16    13    14    1
    17    14    15    1
    18    15    16    2
    19     5     6   ar
    20     6     7   ar
    21     1    23    1
    22    23    24    1
    23    23    27    1
    24    27    28    2
    25    27    29   am
    26    29    30    1
    27    30    31    1
    28    31    32    1
    29    32    33    1
    30    32    34    1
    31     7     2   ar
    32    34    29    1
    33    16     8    1
    34    14    10    1
    35    13    17    1
    36    24    25    1
    37    24    26    1
@<TRIPOS>MOLECULE
*****
 34 37 0 0 0
SMALL
GASTEIGER

@<TRIPOS>ATOM
      1 C         138.7992  142.3297  162.3375 C.3     1  UNL1        0.1219
      2 C         139.9034  142.2569  161.3249 C.ar    1  UNL1       -0.0121
      3 C         139.5920  142.3985  159.8644 C.ar    1  UNL1       -0.0037
      4 C         140.6961  142.3257  158.8516 C.ar    1  UNL1       -0.0003
      5 C         142.1115  142.1113  159.2994 C.ar    1  UNL1        0.0013
      6 C         142.4229  141.9696  160.7598 C.ar    1  UNL1       -0.0003
      7 C         141.3188  142.0424  161.7726 C.ar    1  UNL1       -0.0037
      8 C         143.2157  142.0385  158.2866 C.2     1  UNL1        0.0162
      9 C         144.5833  142.5503  158.6299 C.2     1  UNL1        0.0862
     10 N         145.6874  142.4775  157.6172 N.pl3   1  UNL1       -0.1881
     11 N         147.1259  142.8993  157.6686 N.2     1  UNL1       -0.1584
     12 C         147.7515  142.5753  156.3444 C.2     1  UNL1        0.1807
     13 N         146.6997  141.9533  155.4745 N.pl3   1  UNL1       -0.2959
     14 C         145.4239  141.8929  156.2611 C.3     1  UNL1        0.1920
     15 C         144.0563  141.3811  155.9179 C.2     1  UNL1        0.0156
     16 C         142.9523  141.4539  156.9306 C.2     1  UNL1        0.0002
     17 H         146.8246  141.6398  154.5497 H       1  UNL1        0.1501
     18 C         138.8421  144.9945  165.2780 C.3     1  UNL1        0.1149
     19 N         139.0738  143.7266  164.5108 N.am    1  UNL1       -0.2757
     20 C         139.8118  142.5876  165.1498 C.3     1  UNL1        0.1149
     21 C         138.5676  143.5977  163.1048 C.2     1  UNL1        0.2312
     22 O         137.8296  144.7367  162.4659 O.2     1  UNL1       -0.2745
     23 C         137.9267  141.1345  162.5831 C.3     1  UNL1        0.1413
     24 N         136.6436  141.2864  163.3450 N.3     1  UNL1       -0.3144
     25 H         136.1818  140.3798  163.4174 H       1  UNL1        0.1193
     26 H         136.0330  141.9408  162.8557 H       1  UNL1        0.1193
     27 C         138.3373  139.7874  162.0666 C.2     1  UNL1        0.2406
     28 O         137.7256  139.2485  160.8074 O.2     1  UNL1       -0.2734
     29 N         139.3597  138.9792  162.8093 N.am    1  UNL1       -0.2756
     30 C         139.8667  137.6233  162.4165 C.3     1  UNL1        0.0964
     31 C         140.8750  137.1911  163.4396 C.3     1  UNL1        0.0585
     32 C         140.9910  138.2800  164.4647 C.3     1  UNL1        0.1824
     33 F         141.8863  138.2662  165.6681 F       1  UNL1       -0.2354
     34 C         140.0545  139.3851  164.0752 C.3     1  UNL1        0.1286
@<TRIPOS>BOND
     1    18    19    1
     2    19    20    1
     3    19    21   am
     4    21    22    2
     5     1    21    1
     6     1     2    1
     7     2     3   ar
     8     3     4   ar
     9     4     5   ar
    10     5     8    1
    11     8     9    2
    12     9    10    1
    13    10    11    1
    14    11    12    2
    15    12    13    1
    16    13    14    1
    17    14    15    1
    18    15    16    2
    19     5     6   ar
    20     6     7   ar
    21     1    23    1
    22    23    24    1
    23    23    27    1
    24    27    28    2
    25    27    29   am
    26    29    30    1
    27    30    31    1
    28    31    32    1
    29    32    33    1
    30    32    34    1
    31     7     2   ar
    32    34    29    1
    33    16     8    1
    34    14    10    1
    35    13    17    1
    36    24    25    1
    37    24    26    1
@<TRIPOS>MOLECULE
*****
 34 37 0 0 0
SMALL
GASTEIGER

@<TRIPOS>ATOM
      1 C         140.1716  140.2677  160.1441 C.3     1  UNL1        0.1219
      2 C         140.3942  140.1702  161.6242 C.ar    1  UNL1       -0.0121
      3 C         141.6155  140.7851  162.2410 C.ar    1  UNL1       -0.0037
      4 C         141.8382  140.6876  163.7212 C.ar    1  UNL1       -0.0003
      5 C         140.8396  139.9753  164.5846 C.ar    1  UNL1        0.0013
      6 C         139.6184  139.3604  163.9678 C.ar    1  UNL1       -0.0003
      7 C         139.3956  139.4579  162.4876 C.ar    1  UNL1       -0.0037
      8 C         141.0623  139.8778  166.0648 C.2     1  UNL1        0.0162
      9 C         139.9119  140.0606  167.0099 C.2     1  UNL1        0.0862
     10 N         140.1346  139.9631  168.4901 N.pl3   1  UNL1       -0.1881
     11 N         139.2009  140.0965  169.6564 N.2     1  UNL1       -0.1584
     12 C         139.9969  139.8987  170.9123 C.2     1  UNL1        0.1807
     13 N         141.4226  139.6431  170.5222 N.pl3   1  UNL1       -0.2959
     14 C         141.5076  139.6829  169.0251 C.3     1  UNL1        0.1920
     15 C         142.6580  139.5002  168.0800 C.2     1  UNL1        0.0156
     16 C         142.4353  139.5977  166.5998 C.2     1  UNL1        0.0002
     17 H         142.1710  139.4782  171.1401 H       1  UNL1        0.1501
     18 C         142.4965  138.0956  157.7721 C.3     1  UNL1        0.1149
     19 N         142.0284  139.1980  158.6752 N.am    1  UNL1       -0.2757
     20 C         142.9493  140.3330  159.0125 C.3     1  UNL1        0.1149
     21 C         140.6396  139.1653  159.2410 C.2     1  UNL1        0.2312
     22 O         139.7189  138.0302  158.9036 O.2     1  UNL1       -0.2745
     23 C         139.4809  141.4677  159.5670 C.3     1  UNL1        0.1413
     24 N         138.2291  141.2960  158.7586 N.3     1  UNL1       -0.3144
     25 H         137.8975  142.2090  158.4474 H       1  UNL1        0.1193
     26 H         137.5123  140.8513  159.3321 H       1  UNL1        0.1193
     27 C         140.0421  142.8394  159.7982 C.2     1  UNL1        0.2406
     28 O         141.0822  143.3909  158.8686 O.2     1  UNL1       -0.2734
     29 N         139.5633  143.6597  160.9592 N.am    1  UNL1       -0.2756
     30 C         140.0298  145.0401  161.3153 C.3     1  UNL1        0.0964
     31 C         139.2887  145.4772  162.5441 C.3     1  UNL1        0.0585
     32 C         138.3642  144.3669  162.9473 C.3     1  UNL1        0.1824
     33 F         137.4334  144.3780  164.1235 F       1  UNL1       -0.2354
     34 C         138.5339  143.2436  161.9677 C.3     1  UNL1        0.1286
@<TRIPOS>BOND
     1    18    19    1
     2    19    20    1
     3    19    21   am
     4    21    22    2
     5     1    21    1
     6     1     2    1
     7     2     3   ar
     8     3     4   ar
     9     4     5   ar
    10     5     8    1
    11     8     9    2
    12     9    10    1
    13    10    11    1
    14    11    12    2
    15    12    13    1
    16    13    14    1
    17    14    15    1
    18    15    16    2
    19     5     6   ar
    20     6     7   ar
    21     1    23    1
    22    23    24    1
    23    23    27    1
    24    27    28    2
    25    27    29   am
    26    29    30    1
    27    30    31    1
    28    31    32    1
    29    32    33    1
    30    32    34    1
    31     7     2   ar
    32    34    29    1
    33    16     8    1
    34    14    10    1
    35    13    17    1
    36    24    25    1
    37    24    26    1
@<TRIPOS>MOLECULE
*****
 34 37 0 0 0
SMALL
GASTEIGER

@<TRIPOS>ATOM
      1 C         140.1406  142.3003  162.5328 C.3     1  UNL1        0.1219
      2 C         140.3763  141.3180  161.4240 C.ar    1  UNL1       -0.0121
      3 C         141.6537  141.3654  160.6390 C.ar    1  UNL1       -0.0037
      4 C         141.8895  140.3832  159.5302 C.ar    1  UNL1       -0.0003
      5 C         140.8480  139.3535  159.2063 C.ar    1  UNL1        0.0013
      6 C         139.5706  139.3061  159.9912 C.ar    1  UNL1       -0.0003
      7 C         139.3348  140.2883  161.1000 C.ar    1  UNL1       -0.0037
      8 C         141.0838  138.3712  158.0973 C.2     1  UNL1        0.0162
      9 C         142.4609  137.8267  157.8580 C.2     1  UNL1        0.0862
     10 N         142.6966  136.8444  156.7492 N.pl3   1  UNL1       -0.1881
     11 N         143.9349  136.1414  156.2776 N.2     1  UNL1       -0.1584
     12 C         143.5589  135.2691  155.1166 C.2     1  UNL1        0.1807
     13 N         142.0884  135.4331  154.8707 N.pl3   1  UNL1       -0.2959
     14 C         141.5554  136.4067  155.8797 C.3     1  UNL1        0.1920
     15 C         140.1784  136.9512  156.1190 C.2     1  UNL1        0.0156
     16 C         139.9426  137.9335  157.2279 C.2     1  UNL1        0.0002
     17 H         141.5649  134.9811  154.1701 H       1  UNL1        0.1501
     18 C         139.7607  146.1742  161.7596 C.3     1  UNL1        0.1149
     19 N         140.3841  144.8427  162.0570 N.am    1  UNL1       -0.2757
     20 C         141.8746  144.7223  162.1760 C.3     1  UNL1        0.1149
     21 C         139.5172  143.6317  162.2354 C.2     1  UNL1        0.2312
     22 O         138.0268  143.7522  162.1163 O.2     1  UNL1       -0.2745
     23 C         140.5283  141.9511  163.9391 C.3     1  UNL1        0.1413
     24 N         140.2848  142.9299  165.0494 N.3     1  UNL1       -0.3144
     25 H         140.6068  142.5309  165.9311 H       1  UNL1        0.1193
     26 H         139.2869  143.1318  165.1118 H       1  UNL1        0.1193
     27 C         141.1597  140.6230  164.2352 C.2     1  UNL1        0.2406
     28 O         140.3001  139.4472  164.5940 O.2     1  UNL1       -0.2734
     29 N         142.6506  140.4707  164.1725 N.am    1  UNL1       -0.2756
     30 C         143.4203  139.2117  164.4415 C.3     1  UNL1        0.0964
     31 C         144.8791  139.5135  164.2651 C.3     1  UNL1        0.0585
     32 C         145.0108  140.9592  163.8870 C.3     1  UNL1        0.1824
     33 F         146.2944  141.6856  163.6141 F       1  UNL1       -0.2354
     34 C         143.6335  141.5507  163.8298 C.3     1  UNL1        0.1286
@<TRIPOS>BOND
     1    18    19    1
     2    19    20    1
     3    19    21   am
     4    21    22    2
     5     1    21    1
     6     1     2    1
     7     2     3   ar
     8     3     4   ar
     9     4     5   ar
    10     5     8    1
    11     8     9    2
    12     9    10    1
    13    10    11    1
    14    11    12    2
    15    12    13    1
    16    13    14    1
    17    14    15    1
    18    15    16    2
    19     5     6   ar
    20     6     7   ar
    21     1    23    1
    22    23    24    1
    23    23    27    1
    24    27    28    2
    25    27    29   am
    26    29    30    1
    27    30    31    1
    28    31    32    1
    29    32    33    1
    30    32    34    1
    31     7     2   ar
    32    34    29    1
    33    16     8    1
    34    14    10    1
    35    13    17    1
    36    24    25    1
    37    24    26    1
