@<TRIPOS>MOLECULE
*****
 34 38 0 0 0
SMALL
GASTEIGER

@<TRIPOS>ATOM
      1 C         141.8357  141.7383  168.4476 C.ar    1  UNL1        0.1059
      2 C         140.4463  141.1823  168.5488 C.ar    1  UNL1        0.0183
      3 C         139.8764  140.3774  167.4186 C.ar    1  UNL1        0.0015
      4 C         140.6961  140.1285  166.1872 C.ar    1  UNL1        0.0045
      5 C         142.0855  140.6846  166.0860 C.ar    1  UNL1        0.0549
      6 C         142.6554  141.4895  167.2163 C.ar    1  UNL1        0.0229
      7 C         142.9051  140.4357  164.8546 C.2     1  UNL1        0.2496
      8 O         143.9764  139.3858  164.8662 O.2     1  UNL1       -0.2699
      9 N         142.6533  141.2366  163.6116 N.am    1  UNL1       -0.2661
     10 C         143.3885  141.1008  162.3112 C.3     1  UNL1        0.1236
     11 C         142.8117  142.0943  161.3466 C.ar    1  UNL1        0.0338
     12 C         142.9095  142.6243  159.9468 C.ar    1  UNL1        0.0991
     13 N         141.8783  143.7017  159.7860 N.ar    1  UNL1       -0.2271
     14 N         141.1431  143.8375  161.0864 N.ar    1  UNL1       -0.1680
     15 C         141.7200  142.8440  162.0510 C.ar    1  UNL1        0.0981
     16 C         141.6221  142.3139  163.4508 C.3     1  UNL1        0.1414
     17 C         141.6265  144.5026  158.5430 C.ar    1  UNL1        0.1042
     18 C         142.4771  144.2866  157.3265 C.ar    1  UNL1        0.1181
     19 N         142.2253  145.0875  156.0834 N.ar    1  UNL1       -0.2384
     20 C         141.1230  146.1044  156.0569 C.ar    1  UNL1        0.1285
     21 C         140.2724  146.3204  157.2735 C.ar    1  UNL1        0.1607
     22 F         139.1701  147.3374  157.2468 F       1  UNL1       -0.2025
     23 C         140.5242  145.5195  158.5165 C.ar    1  UNL1        0.0520
     24 C         140.1262  139.3236  165.0570 C.ar    1  UNL1        0.0024
     25 C         140.6316  137.9358  164.7951 C.ar    1  UNL1        0.0001
     26 C         140.0617  137.1309  163.6649 C.ar    1  UNL1        0.0023
     27 C         138.9864  137.7137  162.7966 C.ar    1  UNL1        0.0296
     28 C         138.4810  139.1015  163.0585 C.ar    1  UNL1        0.1401
     29 F         137.4057  139.6844  162.1902 F       1  UNL1       -0.2042
     30 C         139.0509  139.9064  164.1887 C.ar    1  UNL1        0.0296
     31 C         142.9755  143.3482  170.7080 C.3     1  UNL1        0.1816
     32 S         142.4056  142.5433  169.5778 S.O2    1  UNL1        0.0105
     33 O         141.1201  142.3897  170.3354 O.2     1  UNL1       -0.1686
     34 O         143.6911  142.6968  168.8202 O.2     1  UNL1       -0.1686
@<TRIPOS>BOND
     1    31    32    1
     2    32    33    2
     3    32    34    2
     4    32     1    1
     5     1     2   ar
     6     2     3   ar
     7     3     4   ar
     8     4    24    1
     9    24    25   ar
    10    25    26   ar
    11    26    27   ar
    12    27    28   ar
    13    28    29    1
    14    28    30   ar
    15     4     5   ar
    16     5     7    1
    17     7     8    2
    18     7     9   am
    19     9    10    1
    20    10    11    1
    21    11    12   ar
    22    12    13   ar
    23    13    17    1
    24    17    18   ar
    25    18    19   ar
    26    19    20   ar
    27    20    21   ar
    28    21    22    1
    29    21    23   ar
    30    13    14   ar
    31    14    15   ar
    32    15    16    1
    33     5     6   ar
    34     6     1   ar
    35    30    24   ar
    36    16     9    1
    37    15    11   ar
    38    23    17   ar
@<TRIPOS>MOLECULE
*****
 34 38 0 0 0
SMALL
GASTEIGER

@<TRIPOS>ATOM
      1 C         141.5223  140.3788  168.0155 C.ar    1  UNL1        0.1059
      2 C         141.7534  141.8596  168.0790 C.ar    1  UNL1        0.0183
      3 C         141.1925  142.7526  167.0122 C.ar    1  UNL1        0.0015
      4 C         140.4005  142.1648  165.8820 C.ar    1  UNL1        0.0045
      5 C         140.1693  140.6841  165.8186 C.ar    1  UNL1        0.0549
      6 C         140.7303  139.7911  166.8854 C.ar    1  UNL1        0.0229
      7 C         139.3773  140.0964  164.6884 C.2     1  UNL1        0.2496
      8 O         137.9119  139.8263  164.8604 O.2     1  UNL1       -0.2699
      9 N         140.0508  139.7787  163.3863 N.am    1  UNL1       -0.2661
     10 C         139.3922  139.1914  162.1733 C.3     1  UNL1        0.1236
     11 C         140.4355  139.0423  161.1058 C.ar    1  UNL1        0.0338
     12 C         140.6732  138.5872  159.6965 C.ar    1  UNL1        0.0991
     13 N         142.1235  138.8012  159.3787 N.ar    1  UNL1       -0.2271
     14 N         142.7821  139.3885  160.5917 N.ar    1  UNL1       -0.1680
     15 C         141.7388  139.5376  161.6592 C.ar    1  UNL1        0.0981
     16 C         141.5010  139.9927  163.0685 C.3     1  UNL1        0.1414
     17 C         142.7969  138.4835  158.0766 C.ar    1  UNL1        0.1042
     18 C         143.5756  139.5443  157.3566 C.ar    1  UNL1        0.1181
     19 N         144.2490  139.2267  156.0544 N.ar    1  UNL1       -0.2384
     20 C         144.1438  137.8483  155.4723 C.ar    1  UNL1        0.1285
     21 C         143.3651  136.7875  156.1923 C.ar    1  UNL1        0.1607
     22 F         143.2599  135.4090  155.6101 F       1  UNL1       -0.2025
     23 C         142.6917  137.1051  157.4945 C.ar    1  UNL1        0.0520
     24 C         139.8396  143.0578  164.8153 C.ar    1  UNL1        0.0024
     25 C         138.3695  143.3538  164.7814 C.ar    1  UNL1        0.0001
     26 C         137.8087  144.2469  163.7147 C.ar    1  UNL1        0.0023
     27 C         138.7179  144.8439  162.6818 C.ar    1  UNL1        0.0296
     28 C         140.1880  144.5478  162.7156 C.ar    1  UNL1        0.1401
     29 F         141.0972  145.1448  161.6828 F       1  UNL1       -0.2042
     30 C         140.7489  143.6548  163.7824 C.ar    1  UNL1        0.0296
     31 C         142.6440  138.5928  170.1490 C.3     1  UNL1        0.1816
     32 S         142.0831  139.4858  169.0823 S.O2    1  UNL1        0.0105
     33 O         143.1336  139.0036  168.1262 O.2     1  UNL1       -0.1686
     34 O         141.0326  139.9681  170.0383 O.2     1  UNL1       -0.1686
@<TRIPOS>BOND
     1    31    32    1
     2    32    33    2
     3    32    34    2
     4    32     1    1
     5     1     2   ar
     6     2     3   ar
     7     3     4   ar
     8     4    24    1
     9    24    25   ar
    10    25    26   ar
    11    26    27   ar
    12    27    28   ar
    13    28    29    1
    14    28    30   ar
    15     4     5   ar
    16     5     7    1
    17     7     8    2
    18     7     9   am
    19     9    10    1
    20    10    11    1
    21    11    12   ar
    22    12    13   ar
    23    13    17    1
    24    17    18   ar
    25    18    19   ar
    26    19    20   ar
    27    20    21   ar
    28    21    22    1
    29    21    23   ar
    30    13    14   ar
    31    14    15   ar
    32    15    16    1
    33     5     6   ar
    34     6     1   ar
    35    30    24   ar
    36    16     9    1
    37    15    11   ar
    38    23    17   ar
@<TRIPOS>MOLECULE
*****
 34 38 0 0 0
SMALL
GASTEIGER

@<TRIPOS>ATOM
      1 C         141.3740  140.4924  168.1842 C.ar    1  UNL1        0.1059
      2 C         141.3321  141.9780  168.3875 C.ar    1  UNL1        0.0183
      3 C         140.7452  142.8636  167.3286 C.ar    1  UNL1        0.0015
      4 C         140.2001  142.2636  166.0665 C.ar    1  UNL1        0.0045
      5 C         140.2420  140.7780  165.8632 C.ar    1  UNL1        0.0549
      6 C         140.8289  139.8924  166.9221 C.ar    1  UNL1        0.0229
      7 C         139.6969  140.1781  164.6010 C.2     1  UNL1        0.2496
      8 O         138.3382  139.5426  164.5985 O.2     1  UNL1       -0.2699
      9 N         140.5106  140.2138  163.3414 N.am    1  UNL1       -0.2661
     10 C         140.0996  139.6576  162.0103 C.3     1  UNL1        0.1236
     11 C         141.2132  139.9120  161.0379 C.ar    1  UNL1        0.0338
     12 C         141.6474  139.7254  159.6143 C.ar    1  UNL1        0.0991
     13 N         143.0148  140.3234  159.4647 N.ar    1  UNL1       -0.2271
     14 N         143.4258  140.8795  160.7958 N.ar    1  UNL1       -0.1680
     15 C         142.3122  140.6252  161.7682 C.ar    1  UNL1        0.0981
     16 C         141.8780  140.8117  163.1918 C.3     1  UNL1        0.1414
     17 C         143.8285  140.3590  158.2051 C.ar    1  UNL1        0.1042
     18 C         143.6676  139.2782  157.1775 C.ar    1  UNL1        0.1181
     19 N         144.4813  139.3138  155.9178 N.ar    1  UNL1       -0.2384
     20 C         145.4558  140.4303  155.6858 C.ar    1  UNL1        0.1285
     21 C         145.6167  141.5111  156.7134 C.ar    1  UNL1        0.1607
     22 F         146.5913  142.6275  156.4813 F       1  UNL1       -0.2025
     23 C         144.8030  141.4755  157.9731 C.ar    1  UNL1        0.0520
     24 C         139.6132  143.1493  165.0076 C.ar    1  UNL1        0.0024
     25 C         138.1463  143.0818  164.7018 C.ar    1  UNL1        0.0001
     26 C         137.5594  143.9674  163.6430 C.ar    1  UNL1        0.0023
     27 C         138.4394  144.9206  162.8899 C.ar    1  UNL1        0.0296
     28 C         139.9063  144.9881  163.1958 C.ar    1  UNL1        0.1401
     29 F         140.7864  145.9412  162.4427 F       1  UNL1       -0.2042
     30 C         140.4932  144.1024  164.2546 C.ar    1  UNL1        0.0296
     31 C         142.5478  138.7211  170.3019 C.3     1  UNL1        0.1816
     32 S         141.9609  139.6067  169.2430 S.O2    1  UNL1        0.0105
     33 O         142.9832  139.1125  168.2629 O.2     1  UNL1       -0.1686
     34 O         140.9385  140.1010  170.2231 O.2     1  UNL1       -0.1686
@<TRIPOS>BOND
     1    31    32    1
     2    32    33    2
     3    32    34    2
     4    32     1    1
     5     1     2   ar
     6     2     3   ar
     7     3     4   ar
     8     4    24    1
     9    24    25   ar
    10    25    26   ar
    11    26    27   ar
    12    27    28   ar
    13    28    29    1
    14    28    30   ar
    15     4     5   ar
    16     5     7    1
    17     7     8    2
    18     7     9   am
    19     9    10    1
    20    10    11    1
    21    11    12   ar
    22    12    13   ar
    23    13    17    1
    24    17    18   ar
    25    18    19   ar
    26    19    20   ar
    27    20    21   ar
    28    21    22    1
    29    21    23   ar
    30    13    14   ar
    31    14    15   ar
    32    15    16    1
    33     5     6   ar
    34     6     1   ar
    35    30    24   ar
    36    16     9    1
    37    15    11   ar
    38    23    17   ar
@<TRIPOS>MOLECULE
*****
 34 38 0 0 0
SMALL
GASTEIGER

@<TRIPOS>ATOM
      1 C         139.1755  139.2483  166.2341 C.ar    1  UNL1        0.1059
      2 C         139.4016  140.3875  167.1834 C.ar    1  UNL1        0.0183
      3 C         140.3618  141.4828  166.8254 C.ar    1  UNL1        0.0015
      4 C         141.0960  141.4389  165.5180 C.ar    1  UNL1        0.0045
      5 C         140.8699  140.2998  164.5687 C.ar    1  UNL1        0.0549
      6 C         139.9096  139.2044  164.9268 C.ar    1  UNL1        0.0229
      7 C         141.6041  140.2560  163.2614 C.2     1  UNL1        0.2496
      8 O         142.9466  139.5923  163.1770 O.2     1  UNL1       -0.2699
      9 N         140.9957  140.8758  162.0384 N.am    1  UNL1       -0.2661
     10 C         141.6081  140.9098  160.6696 C.3     1  UNL1        0.1236
     11 C         140.6589  141.6256  159.7547 C.ar    1  UNL1        0.0338
     12 C         140.4508  142.0889  158.3434 C.ar    1  UNL1        0.0991
     13 N         139.1232  142.7837  158.2747 N.ar    1  UNL1       -0.2271
     14 N         138.5108  142.7498  159.6435 N.ar    1  UNL1       -0.1680
     15 C         139.4600  142.0340  160.5584 C.ar    1  UNL1        0.0981
     16 C         139.6681  141.5706  161.9697 C.3     1  UNL1        0.1414
     17 C         138.5148  143.4036  157.0517 C.ar    1  UNL1        0.1042
     18 C         137.2483  142.8417  156.4770 C.ar    1  UNL1        0.1181
     19 N         136.6399  143.4616  155.2541 N.ar    1  UNL1       -0.2384
     20 C         137.2980  144.6433  154.6058 C.ar    1  UNL1        0.1285
     21 C         138.5645  145.2052  155.1805 C.ar    1  UNL1        0.1607
     22 F         139.2226  146.3870  154.5321 F       1  UNL1       -0.2025
     23 C         139.1729  144.5853  156.4034 C.ar    1  UNL1        0.0520
     24 C         142.0562  142.5342  165.1600 C.ar    1  UNL1        0.0024
     25 C         143.4906  142.4442  165.5895 C.ar    1  UNL1        0.0001
     26 C         144.4509  143.5396  165.2316 C.ar    1  UNL1        0.0023
     27 C         143.9768  144.7249  164.4441 C.ar    1  UNL1        0.0296
     28 C         142.5424  144.8149  164.0146 C.ar    1  UNL1        0.1401
     29 F         142.0683  146.0003  163.2271 F       1  UNL1       -0.2042
     30 C         141.5821  143.7196  164.3726 C.ar    1  UNL1        0.0296
     31 C         137.2550  137.0576  166.9500 C.3     1  UNL1        0.1816
     32 S         138.2152  138.1530  166.5920 S.O2    1  UNL1        0.0105
     33 O         138.5311  137.4547  165.3026 O.2     1  UNL1       -0.1686
     34 O         137.8994  138.8513  167.8815 O.2     1  UNL1       -0.1686
@<TRIPOS>BOND
     1    31    32    1
     2    32    33    2
     3    32    34    2
     4    32     1    1
     5     1     2   ar
     6     2     3   ar
     7     3     4   ar
     8     4    24    1
     9    24    25   ar
    10    25    26   ar
    11    26    27   ar
    12    27    28   ar
    13    28    29    1
    14    28    30   ar
    15     4     5   ar
    16     5     7    1
    17     7     8    2
    18     7     9   am
    19     9    10    1
    20    10    11    1
    21    11    12   ar
    22    12    13   ar
    23    13    17    1
    24    17    18   ar
    25    18    19   ar
    26    19    20   ar
    27    20    21   ar
    28    21    22    1
    29    21    23   ar
    30    13    14   ar
    31    14    15   ar
    32    15    16    1
    33     5     6   ar
    34     6     1   ar
    35    30    24   ar
    36    16     9    1
    37    15    11   ar
    38    23    17   ar
@<TRIPOS>MOLECULE
*****
 34 38 0 0 0
SMALL
GASTEIGER

@<TRIPOS>ATOM
      1 C         141.7191  139.8266  168.3535 C.ar    1  UNL1        0.1059
      2 C         140.2888  140.1939  168.6171 C.ar    1  UNL1        0.0183
      3 C         139.5483  141.0682  167.6490 C.ar    1  UNL1        0.0015
      4 C         140.2382  141.5752  166.4172 C.ar    1  UNL1        0.0045
      5 C         141.6684  141.2079  166.1536 C.ar    1  UNL1        0.0549
      6 C         142.4089  140.3336  167.1218 C.ar    1  UNL1        0.0229
      7 C         142.3582  141.7149  164.9219 C.2     1  UNL1        0.2496
      8 O         143.2118  142.9463  164.9934 O.2     1  UNL1       -0.2699
      9 N         142.1943  140.9906  163.6187 N.am    1  UNL1       -0.2661
     10 C         142.8189  141.3768  162.3107 C.3     1  UNL1        0.1236
     11 C         142.3876  140.3776  161.2782 C.ar    1  UNL1        0.0338
     12 C         142.5071  139.9989  159.8318 C.ar    1  UNL1        0.0991
     13 N         141.6899  138.7611  159.6077 N.ar    1  UNL1       -0.2271
     14 N         141.0654  138.3749  160.9157 N.ar    1  UNL1       -0.1680
     15 C         141.4966  139.3741  161.9482 C.ar    1  UNL1        0.0981
     16 C         141.3771  139.7528  163.3946 C.3     1  UNL1        0.1414
     17 C         141.5261  138.0368  158.3045 C.ar    1  UNL1        0.1042
     18 C         142.7044  137.3600  157.6692 C.ar    1  UNL1        0.1181
     19 N         142.5405  136.6357  156.3660 N.ar    1  UNL1       -0.2384
     20 C         141.1983  136.5880  155.6980 C.ar    1  UNL1        0.1285
     21 C         140.0200  137.2648  156.3333 C.ar    1  UNL1        0.1607
     22 F         138.6778  137.2171  155.6652 F       1  UNL1       -0.2025
     23 C         140.1838  137.9891  157.6365 C.ar    1  UNL1        0.0520
     24 C         139.4977  142.4495  165.4491 C.ar    1  UNL1        0.0024
     25 C         139.5668  143.9420  165.5820 C.ar    1  UNL1        0.0001
     26 C         138.8263  144.8163  164.6138 C.ar    1  UNL1        0.0023
     27 C         138.0167  144.1981  163.5128 C.ar    1  UNL1        0.0296
     28 C         137.9475  142.7056  163.3799 C.ar    1  UNL1        0.1401
     29 F         137.1378  142.0874  162.2789 F       1  UNL1       -0.2042
     30 C         138.6880  141.8313  164.3481 C.ar    1  UNL1        0.0296
     31 C         143.2001  138.0781  170.2898 C.3     1  UNL1        0.1816
     32 S         142.4596  138.9524  169.3216 S.O2    1  UNL1        0.0105
     33 O         141.5389  139.3907  170.4217 O.2     1  UNL1       -0.1686
     34 O         143.3803  138.5140  168.2216 O.2     1  UNL1       -0.1686
@<TRIPOS>BOND
     1    31    32    1
     2    32    33    2
     3    32    34    2
     4    32     1    1
     5     1     2   ar
     6     2     3   ar
     7     3     4   ar
     8     4    24    1
     9    24    25   ar
    10    25    26   ar
    11    26    27   ar
    12    27    28   ar
    13    28    29    1
    14    28    30   ar
    15     4     5   ar
    16     5     7    1
    17     7     8    2
    18     7     9   am
    19     9    10    1
    20    10    11    1
    21    11    12   ar
    22    12    13   ar
    23    13    17    1
    24    17    18   ar
    25    18    19   ar
    26    19    20   ar
    27    20    21   ar
    28    21    22    1
    29    21    23   ar
    30    13    14   ar
    31    14    15   ar
    32    15    16    1
    33     5     6   ar
    34     6     1   ar
    35    30    24   ar
    36    16     9    1
    37    15    11   ar
    38    23    17   ar
@<TRIPOS>MOLECULE
*****
 34 38 0 0 0
SMALL
GASTEIGER

@<TRIPOS>ATOM
      1 C         142.0670  141.4281  168.1133 C.ar    1  UNL1        0.1059
      2 C         140.7110  142.0692  168.1333 C.ar    1  UNL1        0.0183
      3 C         140.2118  142.8059  166.9257 C.ar    1  UNL1        0.0015
      4 C         141.0687  142.9014  165.6982 C.ar    1  UNL1        0.0045
      5 C         142.4246  142.2602  165.6782 C.ar    1  UNL1        0.0549
      6 C         142.9237  141.5236  166.8858 C.ar    1  UNL1        0.0229
      7 C         143.2813  142.3558  164.4506 C.2     1  UNL1        0.2496
      8 O         144.4564  143.2878  164.4268 O.2     1  UNL1       -0.2699
      9 N         142.9630  141.5193  163.2469 N.am    1  UNL1       -0.2661
     10 C         143.7249  141.5075  161.9549 C.3     1  UNL1        0.1236
     11 C         143.0596  140.5285  161.0334 C.ar    1  UNL1        0.0338
     12 C         143.1193  139.9163  159.6653 C.ar    1  UNL1        0.0991
     13 N         141.9832  138.9446  159.5424 N.ar    1  UNL1       -0.2271
     14 N         141.2213  138.9564  160.8345 N.ar    1  UNL1       -0.1680
     15 C         141.8866  139.9354  161.7560 C.ar    1  UNL1        0.0981
     16 C         141.8269  140.5476  163.1240 C.3     1  UNL1        0.1414
     17 C         141.6649  138.1081  158.3387 C.ar    1  UNL1        0.1042
     18 C         140.2880  138.1423  157.7444 C.ar    1  UNL1        0.1181
     19 N         139.9697  137.3057  156.5408 N.ar    1  UNL1       -0.2384
     20 C         141.0282  136.4351  155.9313 C.ar    1  UNL1        0.1285
     21 C         142.4051  136.4009  156.5256 C.ar    1  UNL1        0.1607
     22 F         143.4636  135.5302  155.9160 F       1  UNL1       -0.2025
     23 C         142.7234  137.2374  157.7293 C.ar    1  UNL1        0.0520
     24 C         140.5695  143.6380  164.4906 C.ar    1  UNL1        0.0024
     25 C         141.2706  144.8803  164.0270 C.ar    1  UNL1        0.0001
     26 C         140.7714  145.6170  162.8194 C.ar    1  UNL1        0.0023
     27 C         139.5710  145.1113  162.0755 C.ar    1  UNL1        0.0296
     28 C         138.8699  143.8690  162.5392 C.ar    1  UNL1        0.1401
     29 F         137.6695  143.3633  161.7953 F       1  UNL1       -0.2042
     30 C         139.3691  143.1323  163.7467 C.ar    1  UNL1        0.0296
     31 C         143.0654  139.9548  170.5284 C.3     1  UNL1        0.1816
     32 S         142.5662  140.6915  169.3208 S.O2    1  UNL1        0.0105
     33 O         142.9910  139.5482  168.4477 O.2     1  UNL1       -0.1686
     34 O         142.1413  141.8348  170.1939 O.2     1  UNL1       -0.1686
@<TRIPOS>BOND
     1    31    32    1
     2    32    33    2
     3    32    34    2
     4    32     1    1
     5     1     2   ar
     6     2     3   ar
     7     3     4   ar
     8     4    24    1
     9    24    25   ar
    10    25    26   ar
    11    26    27   ar
    12    27    28   ar
    13    28    29    1
    14    28    30   ar
    15     4     5   ar
    16     5     7    1
    17     7     8    2
    18     7     9   am
    19     9    10    1
    20    10    11    1
    21    11    12   ar
    22    12    13   ar
    23    13    17    1
    24    17    18   ar
    25    18    19   ar
    26    19    20   ar
    27    20    21   ar
    28    21    22    1
    29    21    23   ar
    30    13    14   ar
    31    14    15   ar
    32    15    16    1
    33     5     6   ar
    34     6     1   ar
    35    30    24   ar
    36    16     9    1
    37    15    11   ar
    38    23    17   ar
@<TRIPOS>MOLECULE
*****
 34 38 0 0 0
SMALL
GASTEIGER

@<TRIPOS>ATOM
      1 C         140.9479  141.1023  168.4034 C.ar    1  UNL1        0.1059
      2 C         142.4191  141.3894  168.4604 C.ar    1  UNL1        0.0183
      3 C         143.1086  142.0088  167.2810 C.ar    1  UNL1        0.0015
      4 C         142.3269  142.3411  166.0446 C.ar    1  UNL1        0.0045
      5 C         140.8557  142.0540  165.9876 C.ar    1  UNL1        0.0549
      6 C         140.1662  141.4346  167.1671 C.ar    1  UNL1        0.0229
      7 C         140.0741  142.3863  164.7513 C.2     1  UNL1        0.2496
      8 O         139.1117  143.5369  164.7590 O.2     1  UNL1       -0.2699
      9 N         140.2549  141.5681  163.5072 N.am    1  UNL1       -0.2661
     10 C         139.5466  141.7798  162.2020 C.3     1  UNL1        0.1236
     11 C         140.0297  140.7370  161.2379 C.ar    1  UNL1        0.0338
     12 C         139.8905  140.2234  159.8355 C.ar    1  UNL1        0.0991
     13 N         140.8113  139.0498  159.6782 N.ar    1  UNL1       -0.2271
     14 N         141.5197  138.8381  160.9834 N.ar    1  UNL1       -0.1680
     15 C         141.0365  139.8809  161.9474 C.ar    1  UNL1        0.0981
     16 C         141.1757  140.3946  163.3498 C.3     1  UNL1        0.1414
     17 C         140.9921  138.2316  158.4341 C.ar    1  UNL1        0.1042
     18 C         139.8212  137.9643  157.5355 C.ar    1  UNL1        0.1181
     19 N         140.0019  137.1460  156.2914 N.ar    1  UNL1       -0.2384
     20 C         141.3536  136.5952  155.9459 C.ar    1  UNL1        0.1285
     21 C         142.5246  136.8625  156.8445 C.ar    1  UNL1        0.1607
     22 F         143.8763  136.3115  156.4988 F       1  UNL1       -0.2025
     23 C         142.3438  137.6807  158.0886 C.ar    1  UNL1        0.0520
     24 C         143.0164  142.9605  164.8653 C.ar    1  UNL1        0.0024
     25 C         142.6849  144.3646  164.4550 C.ar    1  UNL1        0.0001
     26 C         143.3744  144.9840  163.2756 C.ar    1  UNL1        0.0023
     27 C         144.3955  144.1993  162.5066 C.ar    1  UNL1        0.0296
     28 C         144.7271  142.7951  162.9169 C.ar    1  UNL1        0.1401
     29 F         145.7482  142.0103  162.1478 F       1  UNL1       -0.2042
     30 C         144.0375  142.1757  164.0962 C.ar    1  UNL1        0.0296
     31 C         139.5688  139.8635  170.7621 C.3     1  UNL1        0.1816
     32 S         140.2584  140.4829  169.5827 S.O2    1  UNL1        0.0105
     33 O         139.3302  139.7538  168.6571 O.2     1  UNL1       -0.1686
     34 O         141.1866  141.2120  170.5084 O.2     1  UNL1       -0.1686
@<TRIPOS>BOND
     1    31    32    1
     2    32    33    2
     3    32    34    2
     4    32     1    1
     5     1     2   ar
     6     2     3   ar
     7     3     4   ar
     8     4    24    1
     9    24    25   ar
    10    25    26   ar
    11    26    27   ar
    12    27    28   ar
    13    28    29    1
    14    28    30   ar
    15     4     5   ar
    16     5     7    1
    17     7     8    2
    18     7     9   am
    19     9    10    1
    20    10    11    1
    21    11    12   ar
    22    12    13   ar
    23    13    17    1
    24    17    18   ar
    25    18    19   ar
    26    19    20   ar
    27    20    21   ar
    28    21    22    1
    29    21    23   ar
    30    13    14   ar
    31    14    15   ar
    32    15    16    1
    33     5     6   ar
    34     6     1   ar
    35    30    24   ar
    36    16     9    1
    37    15    11   ar
    38    23    17   ar
@<TRIPOS>MOLECULE
*****
 34 38 0 0 0
SMALL
GASTEIGER

@<TRIPOS>ATOM
      1 C         142.5726  141.7014  167.7783 C.ar    1  UNL1        0.1059
      2 C         141.8984  140.3647  167.6844 C.ar    1  UNL1        0.0183
      3 C         141.9499  139.5871  166.4027 C.ar    1  UNL1        0.0015
      4 C         142.6755  140.1463  165.2149 C.ar    1  UNL1        0.0045
      5 C         143.3497  141.4830  165.3088 C.ar    1  UNL1        0.0549
      6 C         143.2982  142.2605  166.5906 C.ar    1  UNL1        0.0229
      7 C         144.0753  142.0421  164.1210 C.2     1  UNL1        0.2496
      8 O         145.5730  142.1248  164.1277 O.2     1  UNL1       -0.2699
      9 N         143.3032  142.5185  162.9265 N.am    1  UNL1       -0.2661
     10 C         143.8878  143.0983  161.6727 C.3     1  UNL1        0.1236
     11 C         142.7567  143.4369  160.7473 C.ar    1  UNL1        0.0338
     12 C         142.4191  144.0044  159.4006 C.ar    1  UNL1        0.0991
     13 N         140.9268  143.9847  159.2502 N.ar    1  UNL1       -0.2271
     14 N         140.3421  143.4049  160.5040 N.ar    1  UNL1       -0.1680
     15 C         141.4732  143.0663  161.4294 C.ar    1  UNL1        0.0981
     16 C         141.8109  142.4987  162.7761 C.3     1  UNL1        0.1414
     17 C         140.1547  144.4611  158.0557 C.ar    1  UNL1        0.1042
     18 C         139.2504  143.5159  157.3214 C.ar    1  UNL1        0.1181
     19 N         138.4783  143.9923  156.1269 N.ar    1  UNL1       -0.2384
     20 C         138.6104  145.4138  155.6667 C.ar    1  UNL1        0.1285
     21 C         139.5146  146.3590  156.4010 C.ar    1  UNL1        0.1607
     22 F         139.6467  147.7805  155.9406 F       1  UNL1       -0.2025
     23 C         140.2868  145.8826  157.5955 C.ar    1  UNL1        0.0520
     24 C         142.7270  139.3688  163.9333 C.ar    1  UNL1        0.0024
     25 C         144.0486  139.0705  163.2895 C.ar    1  UNL1        0.0001
     26 C         144.1000  138.2929  162.0078 C.ar    1  UNL1        0.0023
     27 C         142.8299  137.8136  161.3699 C.ar    1  UNL1        0.0296
     28 C         141.5083  138.1118  162.0136 C.ar    1  UNL1        0.1401
     29 F         140.2382  137.6325  161.3757 F       1  UNL1       -0.2042
     30 C         141.4568  138.8894  163.2953 C.ar    1  UNL1        0.0296
     31 C         142.4697  143.2565  170.3417 C.3     1  UNL1        0.1816
     32 S         142.5211  142.4789  169.0600 S.O2    1  UNL1        0.0105
     33 O         141.0221  142.4394  169.0239 O.2     1  UNL1       -0.1686
     34 O         144.0202  142.5185  169.0962 O.2     1  UNL1       -0.1686
@<TRIPOS>BOND
     1    31    32    1
     2    32    33    2
     3    32    34    2
     4    32     1    1
     5     1     2   ar
     6     2     3   ar
     7     3     4   ar
     8     4    24    1
     9    24    25   ar
    10    25    26   ar
    11    26    27   ar
    12    27    28   ar
    13    28    29    1
    14    28    30   ar
    15     4     5   ar
    16     5     7    1
    17     7     8    2
    18     7     9   am
    19     9    10    1
    20    10    11    1
    21    11    12   ar
    22    12    13   ar
    23    13    17    1
    24    17    18   ar
    25    18    19   ar
    26    19    20   ar
    27    20    21   ar
    28    21    22    1
    29    21    23   ar
    30    13    14   ar
    31    14    15   ar
    32    15    16    1
    33     5     6   ar
    34     6     1   ar
    35    30    24   ar
    36    16     9    1
    37    15    11   ar
    38    23    17   ar
@<TRIPOS>MOLECULE
*****
 34 38 0 0 0
SMALL
GASTEIGER

@<TRIPOS>ATOM
      1 C         143.8034  140.9268  158.0225 C.ar    1  UNL1        0.1059
      2 C         143.3528  139.5015  157.8978 C.ar    1  UNL1        0.0183
      3 C         142.1113  139.0429  158.6038 C.ar    1  UNL1        0.0015
      4 C         141.3205  140.0097  159.4345 C.ar    1  UNL1        0.0045
      5 C         141.7711  141.4350  159.5591 C.ar    1  UNL1        0.0549
      6 C         143.0126  141.8935  158.8531 C.ar    1  UNL1        0.0229
      7 C         140.9802  142.4016  160.3898 C.2     1  UNL1        0.2496
      8 O         140.0750  143.3960  159.7251 O.2     1  UNL1       -0.2699
      9 N         141.0945  142.3739  161.8852 N.am    1  UNL1       -0.2661
     10 C         140.3694  143.2736  162.8417 C.3     1  UNL1        0.1236
     11 C         140.7808  142.8973  164.2343 C.ar    1  UNL1        0.0338
     12 C         140.5869  143.2208  165.6861 C.ar    1  UNL1        0.0991
     13 N         141.4463  142.2885  166.4875 N.ar    1  UNL1       -0.2271
     14 N         142.1714  141.3888  165.5310 N.ar    1  UNL1       -0.1680
     15 C         141.7600  141.7651  164.1383 C.ar    1  UNL1        0.0981
     16 C         141.9539  141.4416  162.6866 C.3     1  UNL1        0.1414
     17 C         141.5606  142.2608  167.9829 C.ar    1  UNL1        0.1042
     18 C         142.7887  141.6933  168.6308 C.ar    1  UNL1        0.1181
     19 N         142.9030  141.6656  170.1262 N.ar    1  UNL1       -0.2384
     20 C         141.7892  142.2053  170.9736 C.ar    1  UNL1        0.1285
     21 C         140.5612  142.7728  170.3257 C.ar    1  UNL1        0.1607
     22 F         139.4474  143.3125  171.1732 F       1  UNL1       -0.2025
     23 C         140.4469  142.8005  168.8303 C.ar    1  UNL1        0.0520
     24 C         140.0790  139.5511  160.1404 C.ar    1  UNL1        0.0024
     25 C         138.7367  140.0579  159.7028 C.ar    1  UNL1        0.0001
     26 C         137.4952  139.5993  160.4088 C.ar    1  UNL1        0.0023
     27 C         137.5960  138.6339  161.5524 C.ar    1  UNL1        0.0296
     28 C         138.9382  138.1272  161.9901 C.ar    1  UNL1        0.1401
     29 F         139.0390  137.1618  163.1337 F       1  UNL1       -0.2042
     30 C         140.1797  138.5858  161.2841 C.ar    1  UNL1        0.0296
     31 C         146.2864  141.8440  156.6105 C.3     1  UNL1        0.1816
     32 S         145.0449  141.3854  157.3165 S.O2    1  UNL1        0.0105
     33 O         145.0267  142.6576  158.1109 O.2     1  UNL1       -0.1686
     34 O         145.0631  140.1131  156.5221 O.2     1  UNL1       -0.1686
@<TRIPOS>BOND
     1    31    32    1
     2    32    33    2
     3    32    34    2
     4    32     1    1
     5     1     2   ar
     6     2     3   ar
     7     3     4   ar
     8     4    24    1
     9    24    25   ar
    10    25    26   ar
    11    26    27   ar
    12    27    28   ar
    13    28    29    1
    14    28    30   ar
    15     4     5   ar
    16     5     7    1
    17     7     8    2
    18     7     9   am
    19     9    10    1
    20    10    11    1
    21    11    12   ar
    22    12    13   ar
    23    13    17    1
    24    17    18   ar
    25    18    19   ar
    26    19    20   ar
    27    20    21   ar
    28    21    22    1
    29    21    23   ar
    30    13    14   ar
    31    14    15   ar
    32    15    16    1
    33     5     6   ar
    34     6     1   ar
    35    30    24   ar
    36    16     9    1
    37    15    11   ar
    38    23    17   ar
