@<TRIPOS>MOLECULE
*****
 41 44 0 0 0
SMALL
GASTEIGER

@<TRIPOS>ATOM
      1 C         139.3591  139.4802  160.4525 C.ar    1  UNL1        0.0597
      2 C         139.2239  138.5959  161.6565 C.ar    1  UNL1        0.0423
      3 C         138.5362  139.1059  162.8881 C.ar    1  UNL1        0.1504
      4 C         137.9837  140.5001  162.9158 C.ar    1  UNL1        0.0744
      5 C         138.1188  141.3844  161.7118 C.ar    1  UNL1        0.1416
      6 C         138.8065  140.8745  160.4801 C.ar    1  UNL1        0.0416
      7 N         141.5312  138.7545  159.2256 N.am    1  UNL1       -0.2644
      8 C         140.0468  138.9703  159.2208 C.2     1  UNL1        0.2508
      9 O         139.2501  138.6762  157.9843 O.2     1  UNL1       -0.2698
     10 H         142.0540  138.9475  160.0371 H       1  UNL1        0.1566
     11 N         143.1183  136.7556  156.3013 N.ar    1  UNL1       -0.2357
     12 C         143.4361  138.1643  155.8956 C.ar    1  UNL1        0.0988
     13 C         142.8802  139.0846  156.9417 C.ar    1  UNL1        0.0565
     14 C         142.2189  138.2446  157.9938 C.ar    1  UNL1        0.1557
     15 N         142.3660  136.8052  157.5981 N.ar    1  UNL1       -0.1534
     16 C         143.4878  135.5151  155.5434 C.3     1  UNL1        0.2423
     17 P         142.9414  134.1848  155.9697 P.3     1  UNL1        0.3677
     18 O         142.3951  132.8545  156.3962 O.2     1  UNL1       -0.2557
     19 O         141.7882  134.3559  155.0260 O.3     1  UNL1       -0.2928
     20 C         141.6221  134.9851  152.5108 C.3     1  UNL1        0.0352
     21 C         141.9400  133.9834  153.5809 C.3     1  UNL1        0.1515
     22 O         144.0947  134.0138  156.9136 O.3     1  UNL1       -0.2928
     23 C         144.2010  132.7738  157.7510 C.3     1  UNL1        0.1515
     24 C         145.5407  132.1432  157.9906 C.3     1  UNL1        0.0352
     25 O         138.4010  138.2215  164.0922 O.3     1  UNL1       -0.4348
     26 C         138.6731  138.7715  165.4610 C.ar    1  UNL1        0.2484
     27 C         139.9490  139.5124  165.7315 C.ar    1  UNL1        0.0614
     28 C         140.2212  140.0623  167.1003 C.ar    1  UNL1        0.0304
     29 C         139.2174  139.8713  168.1985 C.ar    1  UNL1        0.1564
     30 N         137.9416  139.1304  167.9280 N.ar    1  UNL1       -0.1404
     31 N         137.6694  138.5805  166.5592 N.ar    1  UNL1       -0.1097
     32 C         139.4896  140.4213  169.5673 C.2     1  UNL1        0.2685
     33 O         139.2650  139.5647  170.7780 O.2     1  UNL1       -0.2682
     34 N         139.9863  141.8278  169.7253 N.am    1  UNL1       -0.2747
     35 C         140.3180  142.9476  168.7840 C.3     1  UNL1        0.0955
     36 C         140.6887  143.8170  169.9489 C.3     1  UNL1        0.0430
     37 C         140.3569  142.6972  170.8902 C.3     1  UNL1        0.0955
     38 O         137.5663  142.7787  161.7394 O.3     1  UNL1       -0.4791
     39 C         138.1765  143.8095  162.6422 C.3     1  UNL1        0.1661
     40 C         139.3212  144.6485  162.1567 C.3     1  UNL1        0.0472
     41 C         137.6420  144.0013  164.0306 C.3     1  UNL1        0.0472
@<TRIPOS>BOND
     1    20    21    1
     2    21    19    1
     3    19    17    1
     4    17    18    2
     5    17    16    1
     6    16    11    1
     7    11    12   ar
     8    12    13   ar
     9    13    14   ar
    10    14     7    1
    11     7     8   am
    12     8     9    2
    13     8     1    1
    14     1     2   ar
    15     2     3   ar
    16     3    25    1
    17    25    26    1
    18    26    27   ar
    19    27    28   ar
    20    28    29   ar
    21    29    32    1
    22    32    33    2
    23    32    34   am
    24    34    35    1
    25    35    36    1
    26    36    37    1
    27    29    30   ar
    28    30    31   ar
    29     3     4   ar
    30     4     5   ar
    31     5    38    1
    32    38    39    1
    33    39    40    1
    34    39    41    1
    35     5     6   ar
    36    14    15   ar
    37    17    22    1
    38    22    23    1
    39    23    24    1
    40    15    11   ar
    41     6     1   ar
    42    31    26   ar
    43    37    34    1
    44     7    10    1
@<TRIPOS>MOLECULE
*****
 41 44 0 0 0
SMALL
GASTEIGER

@<TRIPOS>ATOM
      1 C         139.4299  139.4567  160.4811 C.ar    1  UNL1        0.0597
      2 C         139.3428  138.5628  161.6825 C.ar    1  UNL1        0.0423
      3 C         138.6479  139.0398  162.9233 C.ar    1  UNL1        0.1504
      4 C         138.0402  140.4106  162.9628 C.ar    1  UNL1        0.0744
      5 C         138.1273  141.3045  161.7614 C.ar    1  UNL1        0.1416
      6 C         138.8222  140.8275  160.5206 C.ar    1  UNL1        0.0416
      7 N         141.6228  138.9167  159.1967 N.am    1  UNL1       -0.2644
      8 C         140.1248  138.9798  159.2402 C.2     1  UNL1        0.2508
      9 O         139.3215  138.5659  158.0429 O.2     1  UNL1       -0.2698
     10 H         142.1499  139.1883  159.9826 H       1  UNL1        0.1566
     11 N         143.4051  137.0095  156.3241 N.ar    1  UNL1       -0.2357
     12 C         143.3687  138.4023  155.7684 C.ar    1  UNL1        0.0988
     13 C         142.6966  139.2863  156.7769 C.ar    1  UNL1        0.0565
     14 C         142.3176  138.4397  157.9558 C.ar    1  UNL1        0.1557
     15 N         142.7555  137.0326  157.6760 N.ar    1  UNL1       -0.1534
     16 C         143.9885  135.8050  155.6469 C.3     1  UNL1        0.2423
     17 P         143.2108  134.5235  155.5947 P.3     1  UNL1        0.3677
     18 O         142.4330  133.2420  155.5424 O.2     1  UNL1       -0.2557
     19 O         144.0078  133.9926  156.7492 O.3     1  UNL1       -0.2928
     20 C         145.2136  131.6937  156.6444 C.3     1  UNL1        0.0352
     21 C         144.0244  132.5202  157.0351 C.3     1  UNL1        0.1515
     22 O         142.4137  135.0544  154.4401 O.3     1  UNL1       -0.2928
     23 C         140.9298  135.2303  154.5710 C.3     1  UNL1        0.1515
     24 C         140.3240  136.5980  154.4598 C.3     1  UNL1        0.0352
     25 O         138.5608  138.1459  164.1248 O.3     1  UNL1       -0.4348
     26 C         138.7830  138.7099  165.4969 C.ar    1  UNL1        0.2484
     27 C         140.0521  139.4464  165.8085 C.ar    1  UNL1        0.0614
     28 C         140.2744  140.0104  167.1806 C.ar    1  UNL1        0.0304
     29 C         139.2276  139.8379  168.2410 C.ar    1  UNL1        0.1564
     30 N         137.9585  139.1014  167.9293 N.ar    1  UNL1       -0.1404
     31 N         137.7363  138.5374  166.5573 N.ar    1  UNL1       -0.1097
     32 C         139.4498  140.4019  169.6130 C.2     1  UNL1        0.2685
     33 O         139.1841  139.5567  170.8234 O.2     1  UNL1       -0.2682
     34 N         139.9378  141.8111  169.7747 N.am    1  UNL1       -0.2747
     35 C         140.3005  142.9224  168.8347 C.3     1  UNL1        0.0955
     36 C         140.6278  143.8040  170.0033 C.3     1  UNL1        0.0430
     37 C         140.2651  142.6927  170.9433 C.3     1  UNL1        0.0955
     38 O         137.5196  142.6753  161.8008 O.3     1  UNL1       -0.4791
     39 C         138.1292  143.7414  162.6619 C.3     1  UNL1        0.1661
     40 C         137.6471  143.9358  164.0690 C.3     1  UNL1        0.0472
     41 C         139.2210  144.6133  162.1160 C.3     1  UNL1        0.0472
@<TRIPOS>BOND
     1    20    21    1
     2    21    19    1
     3    19    17    1
     4    17    18    2
     5    17    16    1
     6    16    11    1
     7    11    12   ar
     8    12    13   ar
     9    13    14   ar
    10    14     7    1
    11     7     8   am
    12     8     9    2
    13     8     1    1
    14     1     2   ar
    15     2     3   ar
    16     3    25    1
    17    25    26    1
    18    26    27   ar
    19    27    28   ar
    20    28    29   ar
    21    29    32    1
    22    32    33    2
    23    32    34   am
    24    34    35    1
    25    35    36    1
    26    36    37    1
    27    29    30   ar
    28    30    31   ar
    29     3     4   ar
    30     4     5   ar
    31     5    38    1
    32    38    39    1
    33    39    40    1
    34    39    41    1
    35     5     6   ar
    36    14    15   ar
    37    17    22    1
    38    22    23    1
    39    23    24    1
    40    15    11   ar
    41     6     1   ar
    42    31    26   ar
    43    37    34    1
    44     7    10    1
@<TRIPOS>MOLECULE
*****
 41 44 0 0 0
SMALL
GASTEIGER

@<TRIPOS>ATOM
      1 C         141.8254  138.4941  158.3792 C.ar    1  UNL1        0.0597
      2 C         140.4777  138.4530  159.0362 C.ar    1  UNL1        0.0423
      3 C         140.1300  139.4540  160.0978 C.ar    1  UNL1        0.1504
      4 C         141.1302  140.4962  160.5023 C.ar    1  UNL1        0.0744
      5 C         142.4779  140.5373  159.8453 C.ar    1  UNL1        0.1416
      6 C         142.8256  139.5363  158.7837 C.ar    1  UNL1        0.0416
      7 N         141.1066  136.6093  156.7418 N.am    1  UNL1       -0.2644
      8 C         142.1731  137.4930  157.3175 C.2     1  UNL1        0.2508
      9 O         143.5874  137.3758  156.8315 O.2     1  UNL1       -0.2698
     10 H         140.1784  136.6862  157.0608 H       1  UNL1        0.1566
     11 N         142.2746  133.6122  154.5695 N.ar    1  UNL1       -0.2357
     12 C         141.7039  134.5234  153.5234 C.ar    1  UNL1        0.0988
     13 C         141.1968  135.7570  154.2099 C.ar    1  UNL1        0.0565
     14 C         141.4543  135.6082  155.6802 C.ar    1  UNL1        0.1557
     15 N         142.1204  134.2827  155.9024 N.ar    1  UNL1       -0.1534
     16 C         142.8914  132.2669  154.3254 C.3     1  UNL1        0.2423
     17 P         142.9428  131.2538  155.4304 P.3     1  UNL1        0.3677
     18 O         142.9942  130.2406  156.5353 O.2     1  UNL1       -0.2557
     19 O         144.4063  131.5270  155.6129 O.3     1  UNL1       -0.2928
     20 C         144.8552  132.7892  157.8389 C.3     1  UNL1        0.0352
     21 C         144.9970  131.5598  156.9913 C.3     1  UNL1        0.1515
     22 O         141.4792  130.9805  155.2478 O.3     1  UNL1       -0.2928
     23 C         141.0320  129.7898  154.4528 C.3     1  UNL1        0.1515
     24 C         139.8185  129.0171  154.8775 C.3     1  UNL1        0.0352
     25 O         138.7822  139.4129  160.7550 O.3     1  UNL1       -0.4348
     26 C         138.6786  139.3159  162.2482 C.ar    1  UNL1        0.2484
     27 C         139.1180  138.0655  162.9509 C.ar    1  UNL1        0.0614
     28 C         139.0143  137.9685  164.4441 C.ar    1  UNL1        0.0304
     29 C         138.4712  139.1218  165.2348 C.ar    1  UNL1        0.1564
     30 N         138.0319  140.3721  164.5321 N.ar    1  UNL1       -0.1404
     31 N         138.1355  140.4691  163.0389 N.ar    1  UNL1       -0.1097
     32 C         138.3676  139.0247  166.7280 C.2     1  UNL1        0.2685
     33 O         137.4486  138.0168  167.3521 O.2     1  UNL1       -0.2682
     34 N         139.1829  139.9357  167.5972 N.am    1  UNL1       -0.2747
     35 C         140.1769  141.0310  167.3475 C.3     1  UNL1        0.0955
     36 C         140.3359  141.2240  168.8265 C.3     1  UNL1        0.0430
     37 C         139.3419  140.1287  169.0762 C.3     1  UNL1        0.0955
     38 O         143.4781  141.5795  160.2498 O.3     1  UNL1       -0.4791
     39 C         144.1215  141.5161  161.6032 C.3     1  UNL1        0.1661
     40 C         144.4495  142.7821  162.3378 C.3     1  UNL1        0.0472
     41 C         144.4370  140.1866  162.2222 C.3     1  UNL1        0.0472
@<TRIPOS>BOND
     1    20    21    1
     2    21    19    1
     3    19    17    1
     4    17    18    2
     5    17    16    1
     6    16    11    1
     7    11    12   ar
     8    12    13   ar
     9    13    14   ar
    10    14     7    1
    11     7     8   am
    12     8     9    2
    13     8     1    1
    14     1     2   ar
    15     2     3   ar
    16     3    25    1
    17    25    26    1
    18    26    27   ar
    19    27    28   ar
    20    28    29   ar
    21    29    32    1
    22    32    33    2
    23    32    34   am
    24    34    35    1
    25    35    36    1
    26    36    37    1
    27    29    30   ar
    28    30    31   ar
    29     3     4   ar
    30     4     5   ar
    31     5    38    1
    32    38    39    1
    33    39    40    1
    34    39    41    1
    35     5     6   ar
    36    14    15   ar
    37    17    22    1
    38    22    23    1
    39    23    24    1
    40    15    11   ar
    41     6     1   ar
    42    31    26   ar
    43    37    34    1
    44     7    10    1
@<TRIPOS>MOLECULE
*****
 41 44 0 0 0
SMALL
GASTEIGER

@<TRIPOS>ATOM
      1 C         141.2987  138.6247  158.3184 C.ar    1  UNL1        0.0597
      2 C         140.0754  138.2598  159.1059 C.ar    1  UNL1        0.0423
      3 C         139.5261  139.2150  160.1237 C.ar    1  UNL1        0.1504
      4 C         140.2001  140.5351  160.3539 C.ar    1  UNL1        0.0744
      5 C         141.4234  140.9000  159.5664 C.ar    1  UNL1        0.1416
      6 C         141.9727  139.9448  158.5487 C.ar    1  UNL1        0.0416
      7 N         140.9312  136.7116  156.5994 N.am    1  UNL1       -0.2644
      8 C         141.8481  137.6696  157.3006 C.2     1  UNL1        0.2508
      9 O         143.3143  137.6724  156.9840 O.2     1  UNL1       -0.2698
     10 H         139.9689  136.7097  156.8073 H       1  UNL1        0.1566
     11 N         142.3954  133.7611  154.5460 N.ar    1  UNL1       -0.2357
     12 C         142.2565  134.8121  153.4847 C.ar    1  UNL1        0.0988
     13 C         141.6911  136.0453  154.1248 C.ar    1  UNL1        0.0565
     14 C         141.4806  135.7564  155.5816 C.ar    1  UNL1        0.1557
     15 N         141.9159  134.3447  155.8419 N.ar    1  UNL1       -0.1534
     16 C         142.9214  132.3707  154.3464 C.3     1  UNL1        0.2423
     17 P         142.8807  131.3840  155.4754 P.3     1  UNL1        0.3677
     18 O         142.8400  130.3973  156.6045 O.2     1  UNL1       -0.2557
     19 O         141.4067  131.2032  155.2644 O.3     1  UNL1       -0.2928
     20 C         139.8641  129.1244  155.0444 C.3     1  UNL1        0.0352
     21 C         140.9008  130.0399  154.4639 C.3     1  UNL1        0.1515
     22 O         144.3548  131.5648  155.6865 O.3     1  UNL1       -0.2928
     23 C         144.8989  131.7313  157.0744 C.3     1  UNL1        0.1515
     24 C         144.6480  133.0020  157.8309 C.3     1  UNL1        0.0352
     25 O         138.3027  138.8501  160.9113 O.3     1  UNL1       -0.4348
     26 C         138.3292  138.9123  162.4098 C.ar    1  UNL1        0.2484
     27 C         138.8432  137.7454  163.1999 C.ar    1  UNL1        0.0614
     28 C         138.8697  137.8076  164.6983 C.ar    1  UNL1        0.0304
     29 C         138.3823  139.0367  165.4067 C.ar    1  UNL1        0.1564
     30 N         137.8684  140.2036  164.6166 N.ar    1  UNL1       -0.1404
     31 N         137.8418  140.1413  163.1181 N.ar    1  UNL1       -0.1097
     32 C         138.4089  139.0989  166.9052 C.2     1  UNL1        0.2685
     33 O         137.4577  138.2614  167.7076 O.2     1  UNL1       -0.2682
     34 N         139.3866  139.9987  167.6013 N.am    1  UNL1       -0.2747
     35 C         140.4554  140.9515  167.1542 C.3     1  UNL1        0.0955
     36 C         140.7693  141.2712  168.5857 C.3     1  UNL1        0.0430
     37 C         139.7005  140.3184  169.0328 C.3     1  UNL1        0.0955
     38 O         142.0975  142.2201  159.7966 O.3     1  UNL1       -0.4791
     39 C         143.1520  142.3492  160.8556 C.3     1  UNL1        0.1661
     40 C         142.7655  142.3323  162.3048 C.3     1  UNL1        0.0472
     41 C         144.5930  142.4953  160.4652 C.3     1  UNL1        0.0472
@<TRIPOS>BOND
     1    20    21    1
     2    21    19    1
     3    19    17    1
     4    17    18    2
     5    17    16    1
     6    16    11    1
     7    11    12   ar
     8    12    13   ar
     9    13    14   ar
    10    14     7    1
    11     7     8   am
    12     8     9    2
    13     8     1    1
    14     1     2   ar
    15     2     3   ar
    16     3    25    1
    17    25    26    1
    18    26    27   ar
    19    27    28   ar
    20    28    29   ar
    21    29    32    1
    22    32    33    2
    23    32    34   am
    24    34    35    1
    25    35    36    1
    26    36    37    1
    27    29    30   ar
    28    30    31   ar
    29     3     4   ar
    30     4     5   ar
    31     5    38    1
    32    38    39    1
    33    39    40    1
    34    39    41    1
    35     5     6   ar
    36    14    15   ar
    37    17    22    1
    38    22    23    1
    39    23    24    1
    40    15    11   ar
    41     6     1   ar
    42    31    26   ar
    43    37    34    1
    44     7    10    1
@<TRIPOS>MOLECULE
*****
 41 44 0 0 0
SMALL
GASTEIGER

@<TRIPOS>ATOM
      1 C         143.6061  142.4952  158.3336 C.ar    1  UNL1        0.0597
      2 C         142.9247  141.5003  157.4415 C.ar    1  UNL1        0.0423
      3 C         143.7022  140.8015  156.3660 C.ar    1  UNL1        0.1504
      4 C         145.1613  141.0975  156.1825 C.ar    1  UNL1        0.0744
      5 C         145.8427  142.0923  157.0746 C.ar    1  UNL1        0.1416
      6 C         145.0651  142.7911  158.1502 C.ar    1  UNL1        0.0416
      7 N         141.3721  143.4918  159.2089 N.am    1  UNL1       -0.2644
      8 C         142.8285  143.1941  159.4093 C.2     1  UNL1        0.2508
      9 O         143.5074  143.5952  160.6853 O.2     1  UNL1       -0.2698
     10 H         140.9265  143.2285  158.3715 H       1  UNL1        0.1566
     11 N         139.2138  144.6030  162.2376 N.ar    1  UNL1       -0.2357
     12 C         139.5822  145.9295  161.6420 C.ar    1  UNL1        0.0988
     13 C         140.4356  145.6747  160.4349 C.ar    1  UNL1        0.0565
     14 C         140.5945  144.1907  160.2846 C.ar    1  UNL1        0.1557
     15 N         139.8394  143.5284  161.3986 N.ar    1  UNL1       -0.1534
     16 C         138.3682  144.3887  163.4578 C.3     1  UNL1        0.2423
     17 P         138.9055  143.5973  164.6132 P.3     1  UNL1        0.3677
     18 O         139.4427  142.8058  165.7686 O.2     1  UNL1       -0.2557
     19 O         140.1111  144.4883  164.6630 O.3     1  UNL1       -0.2928
     20 C         142.5997  144.5914  163.9241 C.3     1  UNL1        0.0352
     21 C         141.4867  143.8904  164.6450 C.3     1  UNL1        0.1515
     22 O         137.6997  142.7063  164.5633 O.3     1  UNL1       -0.2928
     23 C         137.3514  141.9860  163.2945 C.3     1  UNL1        0.1515
     24 C         137.7503  140.5515  163.1126 C.3     1  UNL1        0.0352
     25 O         143.0208  139.8066  155.4738 O.3     1  UNL1       -0.4348
     26 C         143.0874  138.3428  155.7943 C.ar    1  UNL1        0.2484
     27 C         144.2063  137.5057  155.2490 C.ar    1  UNL1        0.0614
     28 C         144.2729  136.0418  155.5695 C.ar    1  UNL1        0.0304
     29 C         143.2205  135.4151  156.4354 C.ar    1  UNL1        0.1564
     30 N         142.1016  136.2522  156.9808 N.ar    1  UNL1       -0.1404
     31 N         142.0351  137.7160  156.6602 N.ar    1  UNL1       -0.1097
     32 C         143.2871  133.9512  156.7560 C.2     1  UNL1        0.2685
     33 O         144.2086  133.4605  157.8329 O.2     1  UNL1       -0.2682
     34 N         142.4320  132.9782  155.9996 N.am    1  UNL1       -0.2747
     35 C         141.4240  133.0881  154.8942 C.3     1  UNL1        0.0955
     36 C         141.2228  131.6021  154.9299 C.3     1  UNL1        0.0430
     37 C         142.2308  131.4922  156.0353 C.3     1  UNL1        0.0955
     38 O         147.3017  142.3883  156.8911 O.3     1  UNL1       -0.4791
     39 C         147.8769  142.4980  155.5102 C.3     1  UNL1        0.1661
     40 C         147.2850  143.4627  154.5257 C.3     1  UNL1        0.0472
     41 C         149.0439  141.6432  155.1136 C.3     1  UNL1        0.0472
@<TRIPOS>BOND
     1    20    21    1
     2    21    19    1
     3    19    17    1
     4    17    18    2
     5    17    16    1
     6    16    11    1
     7    11    12   ar
     8    12    13   ar
     9    13    14   ar
    10    14     7    1
    11     7     8   am
    12     8     9    2
    13     8     1    1
    14     1     2   ar
    15     2     3   ar
    16     3    25    1
    17    25    26    1
    18    26    27   ar
    19    27    28   ar
    20    28    29   ar
    21    29    32    1
    22    32    33    2
    23    32    34   am
    24    34    35    1
    25    35    36    1
    26    36    37    1
    27    29    30   ar
    28    30    31   ar
    29     3     4   ar
    30     4     5   ar
    31     5    38    1
    32    38    39    1
    33    39    40    1
    34    39    41    1
    35     5     6   ar
    36    14    15   ar
    37    17    22    1
    38    22    23    1
    39    23    24    1
    40    15    11   ar
    41     6     1   ar
    42    31    26   ar
    43    37    34    1
    44     7    10    1
@<TRIPOS>MOLECULE
*****
 41 44 0 0 0
SMALL
GASTEIGER

@<TRIPOS>ATOM
      1 C         144.7439  142.0515  158.8516 C.ar    1  UNL1        0.0597
      2 C         143.8745  141.0992  158.0852 C.ar    1  UNL1        0.0423
      3 C         144.2154  140.7477  156.6674 C.ar    1  UNL1        0.1504
      4 C         145.4256  141.3485  156.0160 C.ar    1  UNL1        0.0744
      5 C         146.2950  142.3008  156.7823 C.ar    1  UNL1        0.1416
      6 C         145.9541  142.6523  158.2001 C.ar    1  UNL1        0.0416
      7 N         143.2992  143.3774  160.5559 N.am    1  UNL1       -0.2644
      8 C         144.4030  142.4031  160.2694 C.2     1  UNL1        0.2508
      9 O         145.1660  141.7802  161.4007 O.2     1  UNL1       -0.2698
     10 H         142.7984  143.7862  159.8134 H       1  UNL1        0.1566
     11 N         141.8626  143.7842  164.1387 N.ar    1  UNL1       -0.2357
     12 C         143.0050  144.7557  164.1725 C.ar    1  UNL1        0.0988
     13 C         143.6823  144.7216  162.8344 C.ar    1  UNL1        0.0565
     14 C         142.9583  143.7290  161.9738 C.ar    1  UNL1        0.1557
     15 N         141.8337  143.1497  162.7799 N.ar    1  UNL1       -0.1534
     16 C         140.9154  143.4977  165.2659 C.3     1  UNL1        0.2423
     17 P         140.7359  142.0912  165.7556 P.3     1  UNL1        0.3677
     18 O         140.5564  140.6849  166.2454 O.2     1  UNL1       -0.2557
     19 O         139.2777  142.1569  165.4099 O.3     1  UNL1       -0.2928
     20 C         137.4795  142.0708  163.5368 C.3     1  UNL1        0.0352
     21 C         138.7926  141.6129  164.0989 C.3     1  UNL1        0.1515
     22 O         142.1941  142.0256  166.1013 O.3     1  UNL1       -0.2928
     23 C         142.6292  141.4287  167.4069 C.3     1  UNL1        0.1515
     24 C         143.0260  142.3218  168.5447 C.3     1  UNL1        0.0352
     25 O         143.3461  139.7954  155.9010 O.3     1  UNL1       -0.4348
     26 C         143.4110  138.3244  156.1874 C.ar    1  UNL1        0.2484
     27 C         144.0252  137.3917  155.1859 C.ar    1  UNL1        0.0614
     28 C         144.0901  135.9207  155.4722 C.ar    1  UNL1        0.0304
     29 C         143.5408  135.3824  156.7601 C.ar    1  UNL1        0.1564
     30 N         142.9266  136.3151  157.7615 N.ar    1  UNL1       -0.1404
     31 N         142.8617  137.7861  157.4751 N.ar    1  UNL1       -0.1097
     32 C         143.6057  133.9114  157.0465 C.2     1  UNL1        0.2685
     33 O         144.5627  133.3894  158.0768 O.2     1  UNL1       -0.2682
     34 N         142.7134  132.9624  156.3025 N.am    1  UNL1       -0.2747
     35 C         141.6654  133.1050  155.2389 C.3     1  UNL1        0.0955
     36 C         141.4517  131.6203  155.2504 C.3     1  UNL1        0.0430
     37 C         142.4998  131.4778  156.3140 C.3     1  UNL1        0.0955
     38 O         147.5052  142.9016  156.1308 O.3     1  UNL1       -0.4791
     39 C         147.5705  143.0230  154.6372 C.3     1  UNL1        0.1661
     40 C         146.8213  144.1198  153.9404 C.3     1  UNL1        0.0472
     41 C         148.3851  142.0475  153.8404 C.3     1  UNL1        0.0472
@<TRIPOS>BOND
     1    20    21    1
     2    21    19    1
     3    19    17    1
     4    17    18    2
     5    17    16    1
     6    16    11    1
     7    11    12   ar
     8    12    13   ar
     9    13    14   ar
    10    14     7    1
    11     7     8   am
    12     8     9    2
    13     8     1    1
    14     1     2   ar
    15     2     3   ar
    16     3    25    1
    17    25    26    1
    18    26    27   ar
    19    27    28   ar
    20    28    29   ar
    21    29    32    1
    22    32    33    2
    23    32    34   am
    24    34    35    1
    25    35    36    1
    26    36    37    1
    27    29    30   ar
    28    30    31   ar
    29     3     4   ar
    30     4     5   ar
    31     5    38    1
    32    38    39    1
    33    39    40    1
    34    39    41    1
    35     5     6   ar
    36    14    15   ar
    37    17    22    1
    38    22    23    1
    39    23    24    1
    40    15    11   ar
    41     6     1   ar
    42    31    26   ar
    43    37    34    1
    44     7    10    1
@<TRIPOS>MOLECULE
*****
 41 44 0 0 0
SMALL
GASTEIGER

@<TRIPOS>ATOM
      1 C         141.9842  139.1789  159.5111 C.ar    1  UNL1        0.0597
      2 C         140.8334  139.3646  160.4551 C.ar    1  UNL1        0.0423
      3 C         140.9725  140.2781  161.6366 C.ar    1  UNL1        0.1504
      4 C         142.2624  141.0060  161.8742 C.ar    1  UNL1        0.0744
      5 C         143.4132  140.8202  160.9302 C.ar    1  UNL1        0.1416
      6 C         143.2741  139.9067  159.7487 C.ar    1  UNL1        0.0416
      7 N         143.0636  137.6412  157.7166 N.am    1  UNL1       -0.2644
      8 C         141.8452  138.2653  158.3295 C.2     1  UNL1        0.2508
      9 O         140.4876  137.9759  157.7609 O.2     1  UNL1       -0.2698
     10 H         143.9546  137.8311  158.0898 H       1  UNL1        0.1566
     11 N         142.8798  134.7343  155.1511 N.ar    1  UNL1       -0.2357
     12 C         142.5414  135.9094  154.2823 C.ar    1  UNL1        0.0988
     13 C         142.5691  137.1414  155.1377 C.ar    1  UNL1        0.0565
     14 C         142.9246  136.7276  156.5350 C.ar    1  UNL1        0.1557
     15 N         143.1167  135.2400  156.5432 N.ar    1  UNL1       -0.1534
     16 C         142.9663  133.3046  154.7058 C.3     1  UNL1        0.2423
     17 P         142.8224  132.1971  155.7071 P.3     1  UNL1        0.3677
     18 O         142.6786  131.0895  156.7085 O.2     1  UNL1       -0.2557
     19 O         141.3300  132.2738  155.5777 O.3     1  UNL1       -0.2928
     20 C         141.3294  130.2983  153.8902 C.3     1  UNL1        0.0352
     21 C         140.6238  131.4508  154.5412 C.3     1  UNL1        0.1515
     22 O         144.3149  132.1204  155.8366 O.3     1  UNL1       -0.2928
     23 C         144.9312  131.5096  157.0602 C.3     1  UNL1        0.1515
     24 C         145.5529  132.3881  158.1050 C.3     1  UNL1        0.0352
     25 O         139.8216  140.4639  162.5806 O.3     1  UNL1       -0.4348
     26 C         140.0620  140.4857  164.0611 C.ar    1  UNL1        0.2484
     27 C         140.3555  139.2092  164.7922 C.ar    1  UNL1        0.0614
     28 C         140.5959  139.2310  166.2726 C.ar    1  UNL1        0.0304
     29 C         140.5428  140.5294  167.0220 C.ar    1  UNL1        0.1564
     30 N         140.2493  141.8058  166.2909 N.ar    1  UNL1       -0.1404
     31 N         140.0089  141.7840  164.8105 N.ar    1  UNL1       -0.1097
     32 C         140.7832  140.5512  168.5024 C.2     1  UNL1        0.2685
     33 O         139.8611  139.8081  169.4230 O.2     1  UNL1       -0.2682
     34 N         141.9457  141.3162  169.0623 N.am    1  UNL1       -0.2747
     35 C         143.0461  142.1515  168.4780 C.3     1  UNL1        0.0955
     36 C         143.5897  142.3980  169.8541 C.3     1  UNL1        0.0430
     37 C         142.4894  141.5626  170.4384 C.3     1  UNL1        0.0955
     38 O         144.7031  141.5481  161.1678 O.3     1  UNL1       -0.4791
     39 C         144.8885  142.3574  162.4170 C.3     1  UNL1        0.1661
     40 C         145.5580  141.7481  163.6130 C.3     1  UNL1        0.0472
     41 C         144.4043  143.7762  162.4702 C.3     1  UNL1        0.0472
@<TRIPOS>BOND
     1    20    21    1
     2    21    19    1
     3    19    17    1
     4    17    18    2
     5    17    16    1
     6    16    11    1
     7    11    12   ar
     8    12    13   ar
     9    13    14   ar
    10    14     7    1
    11     7     8   am
    12     8     9    2
    13     8     1    1
    14     1     2   ar
    15     2     3   ar
    16     3    25    1
    17    25    26    1
    18    26    27   ar
    19    27    28   ar
    20    28    29   ar
    21    29    32    1
    22    32    33    2
    23    32    34   am
    24    34    35    1
    25    35    36    1
    26    36    37    1
    27    29    30   ar
    28    30    31   ar
    29     3     4   ar
    30     4     5   ar
    31     5    38    1
    32    38    39    1
    33    39    40    1
    34    39    41    1
    35     5     6   ar
    36    14    15   ar
    37    17    22    1
    38    22    23    1
    39    23    24    1
    40    15    11   ar
    41     6     1   ar
    42    31    26   ar
    43    37    34    1
    44     7    10    1
@<TRIPOS>MOLECULE
*****
 41 44 0 0 0
SMALL
GASTEIGER

@<TRIPOS>ATOM
      1 C         143.1229  140.2354  159.0940 C.ar    1  UNL1        0.0597
      2 C         143.9084  140.0745  160.3617 C.ar    1  UNL1        0.0423
      3 C         144.4079  141.2850  161.0932 C.ar    1  UNL1        0.1504
      4 C         144.1219  142.6564  160.5571 C.ar    1  UNL1        0.0744
      5 C         143.3364  142.8173  159.2894 C.ar    1  UNL1        0.1416
      6 C         142.8369  141.6068  158.5579 C.ar    1  UNL1        0.0416
      7 N         143.4771  138.3777  157.3126 N.am    1  UNL1       -0.2644
      8 C         142.6234  139.0249  158.3624 C.2     1  UNL1        0.2508
      9 O         141.2701  138.4617  158.6807 O.2     1  UNL1       -0.2698
     10 H         144.3654  138.7473  157.1037 H       1  UNL1        0.1566
     11 N         142.4124  134.8714  156.0328 N.ar    1  UNL1       -0.2357
     12 C         142.0053  135.7375  154.8776 C.ar    1  UNL1        0.0988
     13 C         142.3547  137.1564  155.2165 C.ar    1  UNL1        0.0565
     14 C         142.9776  137.1672  156.5810 C.ar    1  UNL1        0.1557
     15 N         143.0132  135.7550  157.0855 N.ar    1  UNL1       -0.1534
     16 C         142.2475  133.3831  156.1198 C.3     1  UNL1        0.2423
     17 P         142.8970  132.4955  155.0998 P.3     1  UNL1        0.3677
     18 O         143.5466  131.6080  154.0799 O.2     1  UNL1       -0.2557
     19 O         141.5524  132.1897  154.5096 O.3     1  UNL1       -0.2928
     20 C         139.9222  130.1851  154.7818 C.3     1  UNL1        0.0352
     21 C         141.1742  130.7715  154.2000 C.3     1  UNL1        0.1515
     22 O         144.2417  132.8014  155.6901 O.3     1  UNL1       -0.2928
     23 C         144.9879  131.7418  156.4453 C.3     1  UNL1        0.1515
     24 C         145.3425  131.9571  157.8868 C.3     1  UNL1        0.0352
     25 O         145.1935  141.1241  162.3610 O.3     1  UNL1       -0.4348
     26 C         144.4830  141.0597  163.6805 C.ar    1  UNL1        0.2484
     27 C         144.2151  142.3189  164.4503 C.ar    1  UNL1        0.0614
     28 C         143.5046  142.2545  165.7698 C.ar    1  UNL1        0.0304
     29 C         143.0619  140.9308  166.3194 C.ar    1  UNL1        0.1564
     30 N         143.3298  139.6716  165.5496 N.ar    1  UNL1       -0.1404
     31 N         144.0403  139.7361  164.2301 N.ar    1  UNL1       -0.1097
     32 C         142.3514  140.8663  167.6389 C.2     1  UNL1        0.2685
     33 O         143.0545  141.2989  168.8912 O.2     1  UNL1       -0.2682
     34 N         140.9377  140.3693  167.7060 N.am    1  UNL1       -0.2747
     35 C         139.9411  139.8675  166.7035 C.3     1  UNL1        0.0955
     36 C         138.9385  139.6663  167.8009 C.3     1  UNL1        0.0430
     37 C         139.9351  140.1681  168.8034 C.3     1  UNL1        0.0955
     38 O         143.0505  144.1887  158.7532 O.3     1  UNL1       -0.4791
     39 C         141.8484  144.4194  157.8862 C.3     1  UNL1        0.1661
     40 C         140.4825  144.4920  158.5017 C.3     1  UNL1        0.0472
     41 C         142.0123  144.5775  156.4035 C.3     1  UNL1        0.0472
@<TRIPOS>BOND
     1    20    21    1
     2    21    19    1
     3    19    17    1
     4    17    18    2
     5    17    16    1
     6    16    11    1
     7    11    12   ar
     8    12    13   ar
     9    13    14   ar
    10    14     7    1
    11     7     8   am
    12     8     9    2
    13     8     1    1
    14     1     2   ar
    15     2     3   ar
    16     3    25    1
    17    25    26    1
    18    26    27   ar
    19    27    28   ar
    20    28    29   ar
    21    29    32    1
    22    32    33    2
    23    32    34   am
    24    34    35    1
    25    35    36    1
    26    36    37    1
    27    29    30   ar
    28    30    31   ar
    29     3     4   ar
    30     4     5   ar
    31     5    38    1
    32    38    39    1
    33    39    40    1
    34    39    41    1
    35     5     6   ar
    36    14    15   ar
    37    17    22    1
    38    22    23    1
    39    23    24    1
    40    15    11   ar
    41     6     1   ar
    42    31    26   ar
    43    37    34    1
    44     7    10    1
@<TRIPOS>MOLECULE
*****
 41 44 0 0 0
SMALL
GASTEIGER

@<TRIPOS>ATOM
      1 C         141.9345  139.1372  160.4276 C.ar    1  UNL1        0.0597
      2 C         141.9867  138.3323  161.6922 C.ar    1  UNL1        0.0423
      3 C         142.1123  139.0244  163.0170 C.ar    1  UNL1        0.1504
      4 C         142.1855  140.5214  163.0772 C.ar    1  UNL1        0.0744
      5 C         142.1332  141.3263  161.8126 C.ar    1  UNL1        0.1416
      6 C         142.0077  140.6342  160.4878 C.ar    1  UNL1        0.0416
      7 N         143.0275  137.8858  158.4303 N.am    1  UNL1       -0.2644
      8 C         141.8089  138.4451  159.1027 C.2     1  UNL1        0.2508
      9 O         140.4648  138.3125  158.4502 O.2     1  UNL1       -0.2698
     10 H         143.9097  137.9728  158.8585 H       1  UNL1        0.1566
     11 N         142.8602  135.4719  155.3953 N.ar    1  UNL1       -0.2357
     12 C         142.5572  136.7857  154.7377 C.ar    1  UNL1        0.0988
     13 C         142.5830  137.8499  155.7947 C.ar    1  UNL1        0.0565
     14 C         142.9019  137.1937  157.1053 C.ar    1  UNL1        0.1557
     15 N         143.0733  135.7241  156.8585 N.ar    1  UNL1       -0.1534
     16 C         142.9368  134.1399  154.7099 C.3     1  UNL1        0.2423
     17 P         141.8492  133.1274  154.9148 P.3     1  UNL1        0.3677
     18 O         140.7617  132.1148  155.1197 O.2     1  UNL1       -0.2557
     19 O         141.1561  133.6218  153.6799 O.3     1  UNL1       -0.2928
     20 C         142.1675  131.9459  151.9715 C.3     1  UNL1        0.0352
     21 C         140.9909  132.7132  152.4979 C.3     1  UNL1        0.1515
     22 O         142.5424  132.6329  156.1498 O.3     1  UNL1       -0.2928
     23 C         143.0209  131.2132  156.2238 C.3     1  UNL1        0.1515
     24 C         144.2230  130.7848  155.4355 C.3     1  UNL1        0.0352
     25 O         142.1646  138.2194  164.2818 O.3     1  UNL1       -0.4348
     26 C         141.6263  138.7934  165.5588 C.ar    1  UNL1        0.2484
     27 C         142.5598  139.1180  166.6873 C.ar    1  UNL1        0.0614
     28 C         142.0216  139.6919  167.9644 C.ar    1  UNL1        0.0304
     29 C         140.5499  139.9412  168.1129 C.ar    1  UNL1        0.1564
     30 N         139.6165  139.6167  166.9845 N.ar    1  UNL1       -0.1404
     31 N         140.1547  139.0427  165.7074 N.ar    1  UNL1       -0.1097
     32 C         140.0116  140.5152  169.3900 C.2     1  UNL1        0.2685
     33 O         139.3638  139.6169  170.4016 O.2     1  UNL1       -0.2682
     34 N         140.1213  141.9875  169.6555 N.am    1  UNL1       -0.2747
     35 C         140.6830  143.1610  168.9089 C.3     1  UNL1        0.0955
     36 C         140.2763  144.0695  170.0310 C.3     1  UNL1        0.0430
     37 C         139.7145  142.8961  170.7775 C.3     1  UNL1        0.0955
     38 O         142.2065  142.8233  161.8728 O.3     1  UNL1       -0.4791
     39 C         141.2186  143.5898  162.7014 C.3     1  UNL1        0.1661
     40 C         141.6189  144.8897  163.3338 C.3     1  UNL1        0.0472
     41 C         139.8304  143.0564  162.8976 C.3     1  UNL1        0.0472
@<TRIPOS>BOND
     1    20    21    1
     2    21    19    1
     3    19    17    1
     4    17    18    2
     5    17    16    1
     6    16    11    1
     7    11    12   ar
     8    12    13   ar
     9    13    14   ar
    10    14     7    1
    11     7     8   am
    12     8     9    2
    13     8     1    1
    14     1     2   ar
    15     2     3   ar
    16     3    25    1
    17    25    26    1
    18    26    27   ar
    19    27    28   ar
    20    28    29   ar
    21    29    32    1
    22    32    33    2
    23    32    34   am
    24    34    35    1
    25    35    36    1
    26    36    37    1
    27    29    30   ar
    28    30    31   ar
    29     3     4   ar
    30     4     5   ar
    31     5    38    1
    32    38    39    1
    33    39    40    1
    34    39    41    1
    35     5     6   ar
    36    14    15   ar
    37    17    22    1
    38    22    23    1
    39    23    24    1
    40    15    11   ar
    41     6     1   ar
    42    31    26   ar
    43    37    34    1
    44     7    10    1
