@<TRIPOS>MOLECULE
*****
 35 39 0 0 0
SMALL
GASTEIGER

@<TRIPOS>ATOM
      1 C         141.7658  138.7226  161.9988 C.ar    1  UNL1        0.0541
      2 C         143.0041  137.9114  161.7569 C.ar    1  UNL1        0.0180
      3 C         143.4285  137.5908  160.3543 C.ar    1  UNL1        0.0382
      4 C         142.6147  138.0814  159.1937 C.ar    1  UNL1        0.1385
      5 C         141.3764  138.8927  159.4357 C.ar    1  UNL1        0.0382
      6 C         140.9520  139.2133  160.8382 C.ar    1  UNL1        0.0180
      7 O         138.8164  139.3988  168.1708 O.2     1  UNL1       -0.2698
      8 C         140.0680  140.0051  167.6088 C.2     1  UNL1        0.2516
      9 N         140.4925  139.6845  166.2063 N.am    1  UNL1       -0.2659
     10 C         141.7441  140.2908  165.6444 C.3     1  UNL1        0.1160
     11 C         142.1685  139.9702  164.2418 C.3     1  UNL1        0.1197
     12 N         141.3414  139.0432  163.4013 N.am    1  UNL1       -0.2555
     13 C         140.0897  138.4369  163.9632 C.2     1  UNL1        0.2497
     14 O         139.2625  137.5100  163.1227 O.2     1  UNL1       -0.2727
     15 C         139.6653  138.7575  165.3657 C.3     1  UNL1        0.1799
     16 C         140.8952  140.9321  168.4494 C.ar    1  UNL1        0.0811
     17 C         140.4226  142.3317  168.7095 C.ar    1  UNL1        0.0091
     18 C         141.2497  143.2585  169.5501 C.ar    1  UNL1        0.0299
     19 C         142.5496  142.7858  170.1306 C.ar    1  UNL1        0.1424
     20 F         143.3768  143.7128  170.9712 F       1  UNL1       -0.2041
     21 C         143.0223  141.3862  169.8705 C.ar    1  UNL1        0.0594
     22 C         142.1951  140.4594  169.0299 C.ar    1  UNL1        0.1467
     23 F         142.6677  139.0597  168.7697 F       1  UNL1       -0.2039
     24 O         143.0392  137.7608  157.7913 O.3     1  UNL1       -0.4791
     25 C         142.7386  136.4126  157.2064 C.3     1  UNL1        0.1687
     26 C         143.4275  135.1924  157.7415 C.3     1  UNL1        0.0609
     27 C         143.1269  133.8443  157.1566 C.3     1  UNL1        0.0758
     28 N         142.1375  133.7163  156.0365 N.3     1  UNL1       -0.2737
     29 C         141.4486  134.9366  155.5013 C.3     1  UNL1        0.0758
     30 C         141.7492  136.2847  156.0862 C.3     1  UNL1        0.0609
     31 C         141.8370  132.3681  155.4516 C.3     1  UNL1        0.0575
     32 C         140.9215  132.0928  154.2957 C.3     1  UNL1        0.0160
     33 C         140.9179  130.6130  154.0496 C.3     1  UNL1        0.0014
     34 C         141.8311  129.9740  155.0534 C.3     1  UNL1        0.0014
     35 C         142.3991  131.0587  155.9199 C.3     1  UNL1        0.0160
@<TRIPOS>BOND
     1     7     8    2
     2     8    16    1
     3    16    17   ar
     4    17    18   ar
     5    18    19   ar
     6    19    20    1
     7    19    21   ar
     8    21    22   ar
     9    22    23    1
    10     8     9   am
    11     9    10    1
    12    10    11    1
    13    11    12    1
    14    12     1    1
    15     1     2   ar
    16     2     3   ar
    17     3     4   ar
    18     4    24    1
    19    24    25    1
    20    25    26    1
    21    26    27    1
    22    27    28    1
    23    28    31    1
    24    31    32    1
    25    32    33    1
    26    33    34    1
    27    34    35    1
    28    28    29    1
    29    29    30    1
    30     4     5   ar
    31     5     6   ar
    32    12    13   am
    33    13    14    2
    34    13    15    1
    35    22    16   ar
    36    15     9    1
    37     6     1   ar
    38    30    25    1
    39    35    31    1
@<TRIPOS>MOLECULE
*****
 35 39 0 0 0
SMALL
GASTEIGER

@<TRIPOS>ATOM
      1 C         141.7530  138.7265  161.9974 C.ar    1  UNL1        0.0541
      2 C         142.9998  137.9260  161.7634 C.ar    1  UNL1        0.0180
      3 C         143.4315  137.6022  160.3638 C.ar    1  UNL1        0.0382
      4 C         142.6165  138.0789  159.1983 C.ar    1  UNL1        0.1385
      5 C         141.3698  138.8795  159.4323 C.ar    1  UNL1        0.0382
      6 C         140.9380  139.2033  160.8318 C.ar    1  UNL1        0.0180
      7 O         138.7767  139.4091  168.1557 O.2     1  UNL1       -0.2698
      8 C         140.0260  140.0218  167.5955 C.2     1  UNL1        0.2516
      9 N         140.4578  139.6980  166.1960 N.am    1  UNL1       -0.2659
     10 C         141.7071  140.3107  165.6358 C.3     1  UNL1        0.1160
     11 C         142.1388  139.9869  164.2362 C.3     1  UNL1        0.1197
     12 N         141.3213  139.0503  163.3969 N.am    1  UNL1       -0.2555
     13 C         140.0720  138.4376  163.9571 C.2     1  UNL1        0.2497
     14 O         139.2544  137.5011  163.1178 O.2     1  UNL1       -0.2727
     15 C         139.6402  138.7614  165.3566 C.3     1  UNL1        0.1799
     16 C         140.8436  140.9584  168.4349 C.ar    1  UNL1        0.0811
     17 C         140.3615  142.3567  168.6845 C.ar    1  UNL1        0.0091
     18 C         141.1791  143.2931  169.5239 C.ar    1  UNL1        0.0299
     19 C         142.4787  142.8313  170.1137 C.ar    1  UNL1        0.1424
     20 F         143.2962  143.7679  170.9531 F       1  UNL1       -0.2041
     21 C         142.9607  141.4330  169.8640 C.ar    1  UNL1        0.0594
     22 C         142.1431  140.4965  169.0247 C.ar    1  UNL1        0.1467
     23 F         142.6252  139.0982  168.7750 F       1  UNL1       -0.2039
     24 O         143.0483  137.7551  157.7988 O.3     1  UNL1       -0.4791
     25 C         142.7502  136.4059  157.2151 C.3     1  UNL1        0.1687
     26 C         141.7741  136.2772  156.0835 C.3     1  UNL1        0.0609
     27 C         141.4761  134.9279  155.4999 C.3     1  UNL1        0.0758
     28 N         142.1541  133.7073  156.0479 N.3     1  UNL1       -0.2737
     29 C         143.1303  133.8359  157.1796 C.3     1  UNL1        0.0758
     30 C         143.4284  135.1852  157.7632 C.3     1  UNL1        0.0609
     31 C         141.8561  132.3580  155.4643 C.3     1  UNL1        0.0575
     32 C         142.4166  131.0495  155.9372 C.3     1  UNL1        0.0160
     33 C         141.8521  129.9631  155.0704 C.3     1  UNL1        0.0014
     34 C         140.9427  130.6002  154.0619 C.3     1  UNL1        0.0014
     35 C         140.9452  132.0804  154.3053 C.3     1  UNL1        0.0160
@<TRIPOS>BOND
     1     7     8    2
     2     8    16    1
     3    16    17   ar
     4    17    18   ar
     5    18    19   ar
     6    19    20    1
     7    19    21   ar
     8    21    22   ar
     9    22    23    1
    10     8     9   am
    11     9    10    1
    12    10    11    1
    13    11    12    1
    14    12     1    1
    15     1     2   ar
    16     2     3   ar
    17     3     4   ar
    18     4    24    1
    19    24    25    1
    20    25    26    1
    21    26    27    1
    22    27    28    1
    23    28    31    1
    24    31    32    1
    25    32    33    1
    26    33    34    1
    27    34    35    1
    28    28    29    1
    29    29    30    1
    30     4     5   ar
    31     5     6   ar
    32    12    13   am
    33    13    14    2
    34    13    15    1
    35    22    16   ar
    36    15     9    1
    37     6     1   ar
    38    30    25    1
    39    35    31    1
@<TRIPOS>MOLECULE
*****
 35 39 0 0 0
SMALL
GASTEIGER

@<TRIPOS>ATOM
      1 C         139.6843  141.6254  161.7376 C.ar    1  UNL1        0.0541
      2 C         138.5436  142.4147  161.1668 C.ar    1  UNL1        0.0180
      3 C         138.4788  142.6798  159.6918 C.ar    1  UNL1        0.0382
      4 C         139.5548  142.1556  158.7877 C.ar    1  UNL1        0.1385
      5 C         140.6955  141.3664  159.3584 C.ar    1  UNL1        0.0382
      6 C         140.7603  141.1013  160.8334 C.ar    1  UNL1        0.0180
      7 O         139.0932  139.4884  168.2440 O.2     1  UNL1       -0.2698
      8 C         139.9435  140.5650  167.6374 C.2     1  UNL1        0.2516
      9 N         139.8787  140.8301  166.1625 N.am    1  UNL1       -0.2659
     10 C         140.7291  141.9066  165.5559 C.3     1  UNL1        0.1160
     11 C         140.6643  142.1717  164.0809 C.3     1  UNL1        0.1197
     12 N         139.7491  141.3603  163.2125 N.am    1  UNL1       -0.2555
     13 C         138.8988  140.2838  163.8191 C.2     1  UNL1        0.2497
     14 O         137.9836  139.4723  162.9508 O.2     1  UNL1       -0.2727
     15 C         138.9636  140.0187  165.2941 C.3     1  UNL1        0.1799
     16 C         140.8587  141.3764  168.5058 C.ar    1  UNL1        0.0811
     17 C         140.3694  142.6519  169.1253 C.ar    1  UNL1        0.0091
     18 C         141.2845  143.4632  169.9937 C.ar    1  UNL1        0.0299
     19 C         142.6891  142.9992  170.2426 C.ar    1  UNL1        0.1424
     20 F         143.6042  143.8106  171.1110 F       1  UNL1       -0.2041
     21 C         143.1784  141.7237  169.6231 C.ar    1  UNL1        0.0594
     22 C         142.2632  140.9124  168.7547 C.ar    1  UNL1        0.1467
     23 F         142.7526  139.6369  168.1352 F       1  UNL1       -0.2039
     24 O         139.4900  142.4208  157.3127 O.3     1  UNL1       -0.4791
     25 C         139.4358  143.8315  156.8059 C.3     1  UNL1        0.1687
     26 C         140.3194  144.8808  157.4127 C.3     1  UNL1        0.0609
     27 C         140.2653  146.2916  156.9059 C.3     1  UNL1        0.0758
     28 N         139.3275  146.6530  155.7924 N.3     1  UNL1       -0.2737
     29 C         138.4439  145.6037  155.1856 C.3     1  UNL1        0.0758
     30 C         138.4980  144.1929  155.6924 C.3     1  UNL1        0.0609
     31 C         139.2734  148.0638  155.2856 C.3     1  UNL1        0.0575
     32 C         139.8633  148.5619  153.9994 C.3     1  UNL1        0.0160
     33 C         139.5743  150.0301  153.8950 C.3     1  UNL1        0.0014
     34 C         138.8058  150.4394  155.1164 C.3     1  UNL1        0.0014
     35 C         138.6199  149.2242  155.9759 C.3     1  UNL1        0.0160
@<TRIPOS>BOND
     1     7     8    2
     2     8    16    1
     3    16    17   ar
     4    17    18   ar
     5    18    19   ar
     6    19    20    1
     7    19    21   ar
     8    21    22   ar
     9    22    23    1
    10     8     9   am
    11     9    10    1
    12    10    11    1
    13    11    12    1
    14    12     1    1
    15     1     2   ar
    16     2     3   ar
    17     3     4   ar
    18     4    24    1
    19    24    25    1
    20    25    26    1
    21    26    27    1
    22    27    28    1
    23    28    31    1
    24    31    32    1
    25    32    33    1
    26    33    34    1
    27    34    35    1
    28    28    29    1
    29    29    30    1
    30     4     5   ar
    31     5     6   ar
    32    12    13   am
    33    13    14    2
    34    13    15    1
    35    22    16   ar
    36    15     9    1
    37     6     1   ar
    38    30    25    1
    39    35    31    1
@<TRIPOS>MOLECULE
*****
 35 39 0 0 0
SMALL
GASTEIGER

@<TRIPOS>ATOM
      1 C         141.1936  138.9694  162.1578 C.ar    1  UNL1        0.0541
      2 C         140.3562  139.5914  161.0800 C.ar    1  UNL1        0.0180
      3 C         140.6556  139.3048  159.6383 C.ar    1  UNL1        0.0382
      4 C         141.7924  138.3964  159.2746 C.ar    1  UNL1        0.1385
      5 C         142.6299  137.7745  160.3524 C.ar    1  UNL1        0.0382
      6 C         142.3305  138.0609  161.7940 C.ar    1  UNL1        0.0180
      7 O         138.8175  139.4678  168.5886 O.2     1  UNL1       -0.2698
      8 C         139.9963  140.1153  167.9244 C.2     1  UNL1        0.2516
      9 N         140.2956  139.8288  166.4827 N.am    1  UNL1       -0.2659
     10 C         141.4744  140.4763  165.8185 C.3     1  UNL1        0.1160
     11 C         141.7737  140.1898  164.3768 C.3     1  UNL1        0.1197
     12 N         140.8943  139.2559  163.5994 N.am    1  UNL1       -0.2555
     13 C         139.7155  138.6084  164.2637 C.2     1  UNL1        0.2497
     14 O         138.8361  137.6745  163.4864 O.2     1  UNL1       -0.2727
     15 C         139.4162  138.8948  165.7053 C.3     1  UNL1        0.1799
     16 C         140.8757  141.0493  168.7018 C.ar    1  UNL1        0.0811
     17 C         140.4059  142.4401  169.0094 C.ar    1  UNL1        0.0091
     18 C         141.2854  143.3740  169.7868 C.ar    1  UNL1        0.0299
     19 C         142.6346  142.9170  170.2566 C.ar    1  UNL1        0.1424
     20 F         143.5141  143.8510  171.0340 F       1  UNL1       -0.2041
     21 C         143.1044  141.5261  169.9490 C.ar    1  UNL1        0.0594
     22 C         142.2250  140.5923  169.1716 C.ar    1  UNL1        0.1467
     23 F         142.6947  139.2013  168.8639 F       1  UNL1       -0.2039
     24 O         142.0918  138.1100  157.8330 O.3     1  UNL1       -0.4791
     25 C         143.1832  138.8613  157.1299 C.3     1  UNL1        0.1687
     26 C         143.7419  138.3395  155.8394 C.3     1  UNL1        0.0609
     27 C         144.8333  139.0909  155.1363 C.3     1  UNL1        0.0758
     28 N         145.3660  140.3641  155.7238 N.3     1  UNL1       -0.2737
     29 C         144.8072  140.8860  157.0144 C.3     1  UNL1        0.0758
     30 C         143.7158  140.1346  157.7174 C.3     1  UNL1        0.0609
     31 C         146.4574  141.1155  155.0207 C.3     1  UNL1        0.0575
     32 C         146.5721  141.3230  153.5395 C.3     1  UNL1        0.0160
     33 C         147.8113  142.1270  153.2788 C.3     1  UNL1        0.0014
     34 C         148.4624  142.4164  154.5988 C.3     1  UNL1        0.0014
     35 C         147.6256  141.7913  155.6754 C.3     1  UNL1        0.0160
@<TRIPOS>BOND
     1     7     8    2
     2     8    16    1
     3    16    17   ar
     4    17    18   ar
     5    18    19   ar
     6    19    20    1
     7    19    21   ar
     8    21    22   ar
     9    22    23    1
    10     8     9   am
    11     9    10    1
    12    10    11    1
    13    11    12    1
    14    12     1    1
    15     1     2   ar
    16     2     3   ar
    17     3     4   ar
    18     4    24    1
    19    24    25    1
    20    25    26    1
    21    26    27    1
    22    27    28    1
    23    28    31    1
    24    31    32    1
    25    32    33    1
    26    33    34    1
    27    34    35    1
    28    28    29    1
    29    29    30    1
    30     4     5   ar
    31     5     6   ar
    32    12    13   am
    33    13    14    2
    34    13    15    1
    35    22    16   ar
    36    15     9    1
    37     6     1   ar
    38    30    25    1
    39    35    31    1
@<TRIPOS>MOLECULE
*****
 35 39 0 0 0
SMALL
GASTEIGER

@<TRIPOS>ATOM
      1 C         143.0029  141.2569  161.7455 C.ar    1  UNL1        0.0541
      2 C         142.4072  140.3361  160.7220 C.ar    1  UNL1        0.0180
      3 C         142.5264  140.6598  159.2622 C.ar    1  UNL1        0.0382
      4 C         143.2413  141.9042  158.8259 C.ar    1  UNL1        0.1385
      5 C         143.8369  142.8250  159.8493 C.ar    1  UNL1        0.0382
      6 C         143.7177  142.5013  161.3091 C.ar    1  UNL1        0.0180
      7 O         143.2398  138.7699  168.1492 O.2     1  UNL1       -0.2698
      8 C         142.5261  139.9623  167.5847 C.2     1  UNL1        0.2516
      9 N         142.6453  140.2859  166.1249 N.am    1  UNL1       -0.2659
     10 C         141.9315  141.4783  165.5603 C.3     1  UNL1        0.1160
     11 C         142.0507  141.8019  164.1005 C.3     1  UNL1        0.1197
     12 N         142.8837  140.9332  163.2053 N.am    1  UNL1       -0.2555
     13 C         143.5974  139.7408  163.7698 C.2     1  UNL1        0.2497
     14 O         144.4304  138.8721  162.8746 O.2     1  UNL1       -0.2727
     15 C         143.4783  139.4172  165.2296 C.3     1  UNL1        0.1799
     16 C         141.6931  140.8310  168.4800 C.ar    1  UNL1        0.0811
     17 C         140.3186  140.3890  168.8866 C.ar    1  UNL1        0.0091
     18 C         139.4857  141.2578  169.7819 C.ar    1  UNL1        0.0299
     19 C         140.0273  142.5685  170.2704 C.ar    1  UNL1        0.1424
     20 F         139.1943  143.4373  171.1657 F       1  UNL1       -0.2041
     21 C         141.4017  143.0105  169.8638 C.ar    1  UNL1        0.0594
     22 C         142.2346  142.1418  168.9685 C.ar    1  UNL1        0.1467
     23 F         143.6092  142.5837  168.5618 F       1  UNL1       -0.2039
     24 O         143.3605  142.2279  157.3661 O.3     1  UNL1       -0.4791
     25 C         144.7027  142.1933  156.6973 C.3     1  UNL1        0.1687
     26 C         144.8060  141.8536  155.2400 C.3     1  UNL1        0.0609
     27 C         146.1483  141.8190  154.5713 C.3     1  UNL1        0.0758
     28 N         147.3872  142.1242  155.3599 N.3     1  UNL1       -0.2737
     29 C         147.2839  142.4640  156.8173 C.3     1  UNL1        0.0758
     30 C         145.9416  142.4986  157.4860 C.3     1  UNL1        0.0609
     31 C         148.7294  142.0897  154.6911 C.3     1  UNL1        0.0575
     32 C         149.0069  142.4160  153.2535 C.3     1  UNL1        0.0160
     33 C         150.4788  142.2507  153.0165 C.3     1  UNL1        0.0014
     34 C         151.1110  141.8223  154.3075 C.3     1  UNL1        0.0014
     35 C         150.0298  141.7227  155.3425 C.3     1  UNL1        0.0160
@<TRIPOS>BOND
     1     7     8    2
     2     8    16    1
     3    16    17   ar
     4    17    18   ar
     5    18    19   ar
     6    19    20    1
     7    19    21   ar
     8    21    22   ar
     9    22    23    1
    10     8     9   am
    11     9    10    1
    12    10    11    1
    13    11    12    1
    14    12     1    1
    15     1     2   ar
    16     2     3   ar
    17     3     4   ar
    18     4    24    1
    19    24    25    1
    20    25    26    1
    21    26    27    1
    22    27    28    1
    23    28    31    1
    24    31    32    1
    25    32    33    1
    26    33    34    1
    27    34    35    1
    28    28    29    1
    29    29    30    1
    30     4     5   ar
    31     5     6   ar
    32    12    13   am
    33    13    14    2
    34    13    15    1
    35    22    16   ar
    36    15     9    1
    37     6     1   ar
    38    30    25    1
    39    35    31    1
@<TRIPOS>MOLECULE
*****
 35 39 0 0 0
SMALL
GASTEIGER

@<TRIPOS>ATOM
      1 C         140.8523  139.9667  160.6638 C.ar    1  UNL1        0.0541
      2 C         142.0047  140.3134  159.7684 C.ar    1  UNL1        0.0180
      3 C         142.1031  139.7022  158.4020 C.ar    1  UNL1        0.0382
      4 C         141.0491  138.7445  157.9311 C.ar    1  UNL1        0.1385
      5 C         139.8967  138.3979  158.8265 C.ar    1  UNL1        0.0382
      6 C         139.7983  139.0089  160.1928 C.ar    1  UNL1        0.0180
      7 O         139.6795  143.6770  166.3302 O.2     1  UNL1       -0.2698
      8 C         140.4586  142.4111  166.1291 C.2     1  UNL1        0.2516
      9 N         140.5570  141.8000  164.7628 N.am    1  UNL1       -0.2659
     10 C         141.3362  140.5341  164.5617 C.3     1  UNL1        0.1160
     11 C         141.4346  139.9230  163.1953 C.3     1  UNL1        0.1197
     12 N         140.7539  140.5778  162.0301 N.am    1  UNL1       -0.2555
     13 C         139.9748  141.8438  162.2312 C.2     1  UNL1        0.2497
     14 O         139.2941  142.4986  161.0660 O.2     1  UNL1       -0.2727
     15 C         139.8763  142.4548  163.5975 C.3     1  UNL1        0.1799
     16 C         141.1393  141.7563  167.2944 C.ar    1  UNL1        0.0811
     17 C         142.4856  142.2401  167.7453 C.ar    1  UNL1        0.0091
     18 C         143.1663  141.5853  168.9106 C.ar    1  UNL1        0.0299
     19 C         142.5006  140.4466  169.6250 C.ar    1  UNL1        0.1424
     20 F         143.1813  139.7918  170.7903 F       1  UNL1       -0.2041
     21 C         141.1543  139.9628  169.1741 C.ar    1  UNL1        0.0594
     22 C         140.4737  140.6176  168.0088 C.ar    1  UNL1        0.1467
     23 F         139.1273  140.1338  167.5579 F       1  UNL1       -0.2039
     24 O         141.1475  138.1334  156.5648 O.3     1  UNL1       -0.4791
     25 C         141.6648  136.7346  156.4043 C.3     1  UNL1        0.1687
     26 C         142.8490  136.2766  157.2030 C.3     1  UNL1        0.0609
     27 C         143.3663  134.8778  157.0425 C.3     1  UNL1        0.0758
     28 N         142.6994  133.9370  156.0833 N.3     1  UNL1       -0.2737
     29 C         141.5152  134.3950  155.2845 C.3     1  UNL1        0.0758
     30 C         140.9979  135.7938  155.4450 C.3     1  UNL1        0.0609
     31 C         143.2167  132.5382  155.9228 C.3     1  UNL1        0.0575
     32 C         142.3950  131.3263  155.5969 C.3     1  UNL1        0.0160
     33 C         143.3170  130.1448  155.5327 C.3     1  UNL1        0.0014
     34 C         144.7084  130.6265  155.8189 C.3     1  UNL1        0.0014
     35 C         144.6464  132.1057  156.0600 C.3     1  UNL1        0.0160
@<TRIPOS>BOND
     1     7     8    2
     2     8    16    1
     3    16    17   ar
     4    17    18   ar
     5    18    19   ar
     6    19    20    1
     7    19    21   ar
     8    21    22   ar
     9    22    23    1
    10     8     9   am
    11     9    10    1
    12    10    11    1
    13    11    12    1
    14    12     1    1
    15     1     2   ar
    16     2     3   ar
    17     3     4   ar
    18     4    24    1
    19    24    25    1
    20    25    26    1
    21    26    27    1
    22    27    28    1
    23    28    31    1
    24    31    32    1
    25    32    33    1
    26    33    34    1
    27    34    35    1
    28    28    29    1
    29    29    30    1
    30     4     5   ar
    31     5     6   ar
    32    12    13   am
    33    13    14    2
    34    13    15    1
    35    22    16   ar
    36    15     9    1
    37     6     1   ar
    38    30    25    1
    39    35    31    1
@<TRIPOS>MOLECULE
*****
 35 39 0 0 0
SMALL
GASTEIGER

@<TRIPOS>ATOM
      1 C         140.8784  139.8613  160.3909 C.ar    1  UNL1        0.0541
      2 C         139.8124  138.9294  159.8957 C.ar    1  UNL1        0.0180
      3 C         139.9451  138.2875  158.5464 C.ar    1  UNL1        0.0382
      4 C         141.1437  138.5775  157.6925 C.ar    1  UNL1        0.1385
      5 C         142.2096  139.5095  158.1877 C.ar    1  UNL1        0.0382
      6 C         142.0770  140.1513  159.5369 C.ar    1  UNL1        0.0180
      7 O         139.6692  143.7597  165.9217 O.2     1  UNL1       -0.2698
      8 C         140.3479  142.4287  165.7878 C.2     1  UNL1        0.2516
      9 N         140.4805  141.7869  164.4386 N.am    1  UNL1       -0.2659
     10 C         141.1592  140.4559  164.3047 C.3     1  UNL1        0.1160
     11 C         141.2918  139.8141  162.9554 C.3     1  UNL1        0.1197
     12 N         140.7458  140.5032  161.7401 N.am    1  UNL1       -0.2555
     13 C         140.0671  141.8341  161.8741 C.2     1  UNL1        0.2497
     14 O         139.5210  142.5232  160.6588 O.2     1  UNL1       -0.2727
     15 C         139.9345  142.4760  163.2233 C.3     1  UNL1        0.1799
     16 C         140.8940  141.7396  167.0032 C.ar    1  UNL1        0.0811
     17 C         139.9991  140.8749  167.8406 C.ar    1  UNL1        0.0091
     18 C         140.5452  140.1859  169.0559 C.ar    1  UNL1        0.0299
     19 C         141.9862  140.3616  169.4337 C.ar    1  UNL1        0.1424
     20 F         142.5323  139.6725  170.6491 F       1  UNL1       -0.2041
     21 C         142.8811  141.2263  168.5963 C.ar    1  UNL1        0.0594
     22 C         142.3350  141.9153  167.3810 C.ar    1  UNL1        0.1467
     23 F         143.2299  142.7801  166.5434 F       1  UNL1       -0.2039
     24 O         141.2763  137.9357  156.3433 O.3     1  UNL1       -0.4791
     25 C         141.7678  136.5230  156.2298 C.3     1  UNL1        0.1687
     26 C         142.9366  136.0673  157.0520 C.3     1  UNL1        0.0609
     27 C         143.4281  134.6546  156.9385 C.3     1  UNL1        0.0758
     28 N         142.7508  133.6978  156.0029 N.3     1  UNL1       -0.2737
     29 C         141.5818  134.1535  155.1806 C.3     1  UNL1        0.0758
     30 C         141.0904  135.5661  155.2941 C.3     1  UNL1        0.0609
     31 C         143.2423  132.2851  155.8894 C.3     1  UNL1        0.0575
     32 C         144.6701  131.8372  155.9942 C.3     1  UNL1        0.0160
     33 C         144.7024  130.3476  155.8208 C.3     1  UNL1        0.0014
     34 C         143.2947  129.8749  155.6088 C.3     1  UNL1        0.0014
     35 C         142.3923  131.0723  155.6512 C.3     1  UNL1        0.0160
@<TRIPOS>BOND
     1     7     8    2
     2     8    16    1
     3    16    17   ar
     4    17    18   ar
     5    18    19   ar
     6    19    20    1
     7    19    21   ar
     8    21    22   ar
     9    22    23    1
    10     8     9   am
    11     9    10    1
    12    10    11    1
    13    11    12    1
    14    12     1    1
    15     1     2   ar
    16     2     3   ar
    17     3     4   ar
    18     4    24    1
    19    24    25    1
    20    25    26    1
    21    26    27    1
    22    27    28    1
    23    28    31    1
    24    31    32    1
    25    32    33    1
    26    33    34    1
    27    34    35    1
    28    28    29    1
    29    29    30    1
    30     4     5   ar
    31     5     6   ar
    32    12    13   am
    33    13    14    2
    34    13    15    1
    35    22    16   ar
    36    15     9    1
    37     6     1   ar
    38    30    25    1
    39    35    31    1
@<TRIPOS>MOLECULE
*****
 35 39 0 0 0
SMALL
GASTEIGER

@<TRIPOS>ATOM
      1 C         142.2201  140.8906  161.7113 C.ar    1  UNL1        0.0541
      2 C         140.9059  141.0124  160.9985 C.ar    1  UNL1        0.0180
      3 C         140.8750  141.2508  159.5179 C.ar    1  UNL1        0.0382
      4 C         142.1582  141.3674  158.7500 C.ar    1  UNL1        0.1385
      5 C         143.4724  141.2456  159.4628 C.ar    1  UNL1        0.0382
      6 C         143.5034  141.0072  160.9433 C.ar    1  UNL1        0.0180
      7 O         143.1740  138.8218  168.1966 O.2     1  UNL1       -0.2698
      8 C         142.3439  139.9372  167.6337 C.2     1  UNL1        0.2516
      9 N         142.3130  140.1756  166.1531 N.am    1  UNL1       -0.2659
     10 C         141.4828  141.2909  165.5902 C.3     1  UNL1        0.1160
     11 C         141.4519  141.5293  164.1095 C.3     1  UNL1        0.1197
     12 N         142.2511  140.6523  163.1918 N.am    1  UNL1       -0.2555
     13 C         143.0812  139.5369  163.7548 C.2     1  UNL1        0.2497
     14 O         143.8803  138.6599  162.8371 O.2     1  UNL1       -0.2727
     15 C         143.1121  139.2985  165.2353 C.3     1  UNL1        0.1799
     16 C         141.5447  140.8142  168.5515 C.ar    1  UNL1        0.0811
     17 C         140.1886  140.3738  169.0172 C.ar    1  UNL1        0.0091
     18 C         139.3895  141.2509  169.9349 C.ar    1  UNL1        0.0299
     19 C         139.9465  142.5682  170.3869 C.ar    1  UNL1        0.1424
     20 F         139.1474  143.4453  171.3047 F       1  UNL1       -0.2041
     21 C         141.3027  143.0086  169.9211 C.ar    1  UNL1        0.0594
     22 C         142.1018  142.1316  169.0034 C.ar    1  UNL1        0.1467
     23 F         143.4579  142.5719  168.5376 F       1  UNL1       -0.2039
     24 O         142.1273  141.6058  157.2694 O.3     1  UNL1       -0.4791
     25 C         141.6346  142.9162  156.7309 C.3     1  UNL1        0.1687
     26 C         140.2580  143.0157  156.1434 C.3     1  UNL1        0.0609
     27 C         139.7653  144.3261  155.6048 C.3     1  UNL1        0.0758
     28 N         140.6491  145.5370  155.6538 N.3     1  UNL1       -0.2737
     29 C         142.0258  145.4376  156.2413 C.3     1  UNL1        0.0758
     30 C         142.5185  144.1272  156.7798 C.3     1  UNL1        0.0609
     31 C         140.1564  146.8474  155.1152 C.3     1  UNL1        0.0575
     32 C         139.1731  147.7618  155.7839 C.3     1  UNL1        0.0160
     33 C         138.9695  148.9531  154.8953 C.3     1  UNL1        0.0014
     34 C         139.8269  148.7749  153.6775 C.3     1  UNL1        0.0014
     35 C         140.5604  147.4736  153.8134 C.3     1  UNL1        0.0160
@<TRIPOS>BOND
     1     7     8    2
     2     8    16    1
     3    16    17   ar
     4    17    18   ar
     5    18    19   ar
     6    19    20    1
     7    19    21   ar
     8    21    22   ar
     9    22    23    1
    10     8     9   am
    11     9    10    1
    12    10    11    1
    13    11    12    1
    14    12     1    1
    15     1     2   ar
    16     2     3   ar
    17     3     4   ar
    18     4    24    1
    19    24    25    1
    20    25    26    1
    21    26    27    1
    22    27    28    1
    23    28    31    1
    24    31    32    1
    25    32    33    1
    26    33    34    1
    27    34    35    1
    28    28    29    1
    29    29    30    1
    30     4     5   ar
    31     5     6   ar
    32    12    13   am
    33    13    14    2
    34    13    15    1
    35    22    16   ar
    36    15     9    1
    37     6     1   ar
    38    30    25    1
    39    35    31    1
@<TRIPOS>MOLECULE
*****
 35 39 0 0 0
SMALL
GASTEIGER

@<TRIPOS>ATOM
      1 C         142.2858  138.7737  159.2889 C.ar    1  UNL1        0.0541
      2 C         143.1108  138.2491  160.4265 C.ar    1  UNL1        0.0180
      3 C         142.4461  137.8302  161.7043 C.ar    1  UNL1        0.0382
      4 C         140.9564  137.9360  161.8445 C.ar    1  UNL1        0.1385
      5 C         140.1314  138.4607  160.7070 C.ar    1  UNL1        0.0382
      6 C         140.7961  138.8795  159.4292 C.ar    1  UNL1        0.0180
      7 O         144.9917  139.5057  153.0126 O.2     1  UNL1       -0.2698
      8 C         144.9444  140.4492  154.1777 C.2     1  UNL1        0.2516
      9 N         144.2797  140.0304  155.4555 N.am    1  UNL1       -0.2659
     10 C         144.2324  140.9739  156.6206 C.3     1  UNL1        0.1160
     11 C         143.5677  140.5550  157.8985 C.3     1  UNL1        0.1197
     12 N         142.9504  139.1926  158.0111 N.am    1  UNL1       -0.2555
     13 C         142.9978  138.2490  156.8460 C.2     1  UNL1        0.2497
     14 O         142.3805  136.8866  156.9587 O.2     1  UNL1       -0.2727
     15 C         143.6624  138.6679  155.5683 C.3     1  UNL1        0.1799
     16 C         145.5617  141.8117  154.0650 C.ar    1  UNL1        0.0811
     17 C         144.8271  142.9117  153.3577 C.ar    1  UNL1        0.0091
     18 C         145.4445  144.2741  153.2450 C.ar    1  UNL1        0.0299
     19 C         146.7964  144.5365  153.8396 C.ar    1  UNL1        0.1424
     20 F         147.4137  145.8990  153.7269 F       1  UNL1       -0.2041
     21 C         147.5309  143.4365  154.5469 C.ar    1  UNL1        0.0594
     22 C         146.9136  142.0741  154.6596 C.ar    1  UNL1        0.1467
     23 F         147.6481  140.9740  155.3669 F       1  UNL1       -0.2039
     24 O         140.2918  137.5171  163.1223 O.3     1  UNL1       -0.4791
     25 C         140.2700  138.4496  164.2971 C.3     1  UNL1        0.1687
     26 C         141.4900  138.6021  165.1564 C.3     1  UNL1        0.0609
     27 C         141.4682  139.5345  166.3311 C.3     1  UNL1        0.0758
     28 N         140.2264  140.3145  166.6466 N.3     1  UNL1       -0.2737
     29 C         139.0064  140.1621  165.7873 C.3     1  UNL1        0.0758
     30 C         139.0282  139.2296  164.6125 C.3     1  UNL1        0.0609
     31 C         140.2046  141.2470  167.8213 C.3     1  UNL1        0.0575
     32 C         139.7678  140.9006  169.2140 C.3     1  UNL1        0.0160
     33 C         139.9090  142.1292  170.0630 C.3     1  UNL1        0.0014
     34 C         140.4331  143.2347  169.1952 C.3     1  UNL1        0.0014
     35 C         140.6158  142.6895  167.8098 C.3     1  UNL1        0.0160
@<TRIPOS>BOND
     1     7     8    2
     2     8    16    1
     3    16    17   ar
     4    17    18   ar
     5    18    19   ar
     6    19    20    1
     7    19    21   ar
     8    21    22   ar
     9    22    23    1
    10     8     9   am
    11     9    10    1
    12    10    11    1
    13    11    12    1
    14    12     1    1
    15     1     2   ar
    16     2     3   ar
    17     3     4   ar
    18     4    24    1
    19    24    25    1
    20    25    26    1
    21    26    27    1
    22    27    28    1
    23    28    31    1
    24    31    32    1
    25    32    33    1
    26    33    34    1
    27    34    35    1
    28    28    29    1
    29    29    30    1
    30     4     5   ar
    31     5     6   ar
    32    12    13   am
    33    13    14    2
    34    13    15    1
    35    22    16   ar
    36    15     9    1
    37     6     1   ar
    38    30    25    1
    39    35    31    1
