@<TRIPOS>MOLECULE
*****
 39 43 0 0 0
SMALL
GASTEIGER

@<TRIPOS>ATOM
      1 N         143.0622  137.2362  160.0408 N.am    1  UNL1       -0.3018
      2 C         142.6788  138.0244  158.8236 C.2     1  UNL1        0.2425
      3 O         142.1728  139.4291  158.9683 O.2     1  UNL1       -0.2733
      4 H         143.3942  136.3142  159.9458 H       1  UNL1        0.1495
      5 N         142.7663  138.7245  163.3290 N.3     1  UNL1       -0.2711
      6 C         141.8571  137.9309  162.4382 C.3     1  UNL1        0.0933
      7 C         142.9397  137.8527  161.4028 C.3     1  UNL1        0.1035
      8 C         143.8489  138.6462  162.2936 C.3     1  UNL1        0.0933
      9 C         142.3987  140.5738  167.4149 C.3     1  UNL1        0.0255
     10 C         141.9859  141.3508  166.2000 C.3     1  UNL1        0.0058
     11 C         142.1084  140.7344  164.8380 C.3     1  UNL1        0.0163
     12 C         142.6438  139.3409  164.6909 C.3     1  UNL1        0.0576
     13 C         143.0566  138.5639  165.9057 C.3     1  UNL1        0.0163
     14 C         142.9341  139.1803  167.2677 C.3     1  UNL1        0.0058
     15 C         141.2123  140.7158  169.7219 C.ar    1  UNL1        0.1538
     16 C         141.0897  141.3323  171.0839 C.ar    1  UNL1        0.1353
     17 N         142.0311  142.4232  171.5008 N.ar    1  UNL1       -0.2392
     18 C         143.0949  142.8976  170.5557 C.ar    1  UNL1        0.0988
     19 C         143.2175  142.2812  169.1938 C.ar    1  UNL1        0.0194
     20 C         142.2761  141.1902  168.7768 C.ar    1  UNL1        0.0146
     21 C         139.1301  139.9314  168.3805 C.3     1  UNL1        0.2525
     22 O         140.2709  139.6249  169.3049 O.3     1  UNL1       -0.4702
     23 C         142.8012  137.4080  157.4616 C.3     1  UNL1        0.1747
     24 N         142.9675  135.9237  157.3223 N.pl3   1  UNL1       -0.3106
     25 H         143.2431  135.3843  158.0984 H       1  UNL1        0.1486
     26 C         142.7137  135.2614  156.0005 C.ar    1  UNL1        0.1320
     27 N         142.0406  136.0226  154.8972 N.ar    1  UNL1       -0.2092
     28 C         141.7868  135.3602  153.5755 C.ar    1  UNL1        0.2000
     29 N         142.2063  133.9367  153.3572 N.ar    1  UNL1       -0.2239
     30 C         142.8794  133.1755  154.4605 C.ar    1  UNL1        0.0857
     31 C         143.2988  131.7520  154.2422 C.ar    1  UNL1        0.0192
     32 C         143.9720  130.9908  155.3455 C.ar    1  UNL1        0.0054
     33 C         144.2257  131.6532  156.6673 C.ar    1  UNL1        0.0716
     34 C         143.8063  133.0767  156.8856 C.ar    1  UNL1        0.0081
     35 C         143.1331  133.8379  155.7822 C.ar    1  UNL1        0.0491
     36 C         144.8989  130.8920  157.7707 C.3     1  UNL1        0.4186
     37 F         145.5721  130.1308  158.8741 F       1  UNL1       -0.1659
     38 F         143.9794  129.7313  157.5309 F       1  UNL1       -0.1659
     39 F         145.8183  132.0526  158.0104 F       1  UNL1       -0.1659
@<TRIPOS>BOND
     1    21    22    1
     2    22    15    1
     3    15    16   ar
     4    16    17   ar
     5    17    18   ar
     6    18    19   ar
     7    19    20   ar
     8     9    20    1
     9     9    10    1
    10    10    11    1
    11    11    12    1
    12    12     5    1
    13     5     6    1
    14     6     7    1
    15     7     1    1
    16     1     2   am
    17     2     3    2
    18     2    23    1
    19    23    24    1
    20    24    26    1
    21    26    27   ar
    22    27    28   ar
    23    28    29   ar
    24    29    30   ar
    25    30    31   ar
    26    31    32   ar
    27    32    33   ar
    28    33    36    1
    29    36    37    1
    30    36    38    1
    31    36    39    1
    32    33    34   ar
    33    34    35   ar
    34     7     8    1
    35    12    13    1
    36    13    14    1
    37    20    15   ar
    38    14     9    1
    39     8     5    1
    40    35    26   ar
    41    35    30   ar
    42     1     4    1
    43    24    25    1
@<TRIPOS>MOLECULE
*****
 39 43 0 0 0
SMALL
GASTEIGER

@<TRIPOS>ATOM
      1 N         143.5917  140.5818  159.5614 N.am    1  UNL1       -0.3018
      2 C         142.9216  139.5058  158.7596 C.2     1  UNL1        0.2425
      3 O         141.8954  138.6204  159.4023 O.2     1  UNL1       -0.2733
      4 H         144.2652  141.1629  159.1396 H       1  UNL1        0.1495
      5 N         142.7321  141.0422  163.0491 N.3     1  UNL1       -0.2711
      6 C         142.2384  141.6093  161.7512 C.3     1  UNL1        0.0933
      7 C         143.2357  140.7725  161.0061 C.3     1  UNL1        0.1035
      8 C         143.7294  140.2053  162.3039 C.3     1  UNL1        0.0933
      9 C         141.6640  141.6142  167.3829 C.3     1  UNL1        0.0255
     10 C         140.7740  140.7987  166.4924 C.3     1  UNL1        0.0058
     11 C         141.1301  140.6080  165.0478 C.3     1  UNL1        0.0163
     12 C         142.3761  141.2328  164.4936 C.3     1  UNL1        0.0576
     13 C         143.2661  142.0483  165.3841 C.3     1  UNL1        0.0163
     14 C         142.9100  142.2390  166.8287 C.3     1  UNL1        0.0058
     15 C         141.9486  140.9463  169.8774 C.ar    1  UNL1        0.1538
     16 C         141.5925  141.1371  171.3221 C.ar    1  UNL1        0.1353
     17 N         140.5958  142.1863  171.7166 N.ar    1  UNL1       -0.2392
     18 C         139.9552  143.0449  170.6666 C.ar    1  UNL1        0.0988
     19 C         140.3113  142.8542  169.2221 C.ar    1  UNL1        0.0194
     20 C         141.3080  141.8049  168.8274 C.ar    1  UNL1        0.0146
     21 C         142.8002  138.4947  169.9949 C.3     1  UNL1        0.2525
     22 O         142.9452  139.8971  169.4829 O.3     1  UNL1       -0.4702
     23 C         143.2775  139.3151  157.3150 C.3     1  UNL1        0.1747
     24 N         143.5681  137.9406  156.7892 N.pl3   1  UNL1       -0.3106
     25 H         144.4608  137.5445  156.9137 H       1  UNL1        0.1486
     26 C         142.4986  137.1697  156.0738 C.ar    1  UNL1        0.1320
     27 N         141.3994  137.8984  155.3593 N.ar    1  UNL1       -0.2092
     28 C         140.3299  137.1275  154.6439 C.ar    1  UNL1        0.2000
     29 N         140.3596  135.6277  154.6431 N.ar    1  UNL1       -0.2239
     30 C         141.4588  134.8990  155.3576 C.ar    1  UNL1        0.0857
     31 C         141.4886  133.3993  155.3568 C.ar    1  UNL1        0.0192
     32 C         142.5878  132.6705  156.0713 C.ar    1  UNL1        0.0054
     33 C         143.6574  133.4415  156.7867 C.ar    1  UNL1        0.0716
     34 C         143.6276  134.9412  156.7876 C.ar    1  UNL1        0.0081
     35 C         142.5283  135.6700  156.0730 C.ar    1  UNL1        0.0491
     36 C         144.7566  132.7128  157.5012 C.3     1  UNL1        0.4186
     37 F         145.8559  131.9840  158.2158 F       1  UNL1       -0.1659
     38 F         144.9700  131.8500  156.2929 F       1  UNL1       -0.1659
     39 F         144.5431  133.5755  158.7095 F       1  UNL1       -0.1659
@<TRIPOS>BOND
     1    21    22    1
     2    22    15    1
     3    15    16   ar
     4    16    17   ar
     5    17    18   ar
     6    18    19   ar
     7    19    20   ar
     8     9    20    1
     9     9    10    1
    10    10    11    1
    11    11    12    1
    12    12     5    1
    13     5     6    1
    14     6     7    1
    15     7     1    1
    16     1     2   am
    17     2     3    2
    18     2    23    1
    19    23    24    1
    20    24    26    1
    21    26    27   ar
    22    27    28   ar
    23    28    29   ar
    24    29    30   ar
    25    30    31   ar
    26    31    32   ar
    27    32    33   ar
    28    33    36    1
    29    36    37    1
    30    36    38    1
    31    36    39    1
    32    33    34   ar
    33    34    35   ar
    34     7     8    1
    35    12    13    1
    36    13    14    1
    37    20    15   ar
    38    14     9    1
    39     8     5    1
    40    35    26   ar
    41    35    30   ar
    42     1     4    1
    43    24    25    1
@<TRIPOS>MOLECULE
*****
 39 43 0 0 0
SMALL
GASTEIGER

@<TRIPOS>ATOM
      1 N         141.2665  138.3647  159.6575 N.am    1  UNL1       -0.3018
      2 C         142.5671  138.3758  158.9103 C.2     1  UNL1        0.2425
      3 O         143.8231  138.8231  159.5976 O.2     1  UNL1       -0.2733
      4 H         140.4421  138.0711  159.2064 H       1  UNL1        0.1495
      5 N         141.1591  139.4175  163.1208 N.3     1  UNL1       -0.2711
      6 C         141.6423  138.1949  162.3983 C.3     1  UNL1        0.0933
      7 C         141.2220  138.8008  161.0921 C.3     1  UNL1        0.1035
      8 C         140.7388  140.0232  161.8145 C.3     1  UNL1        0.0933
      9 C         141.0256  140.7256  167.4244 C.3     1  UNL1        0.0255
     10 C         142.1473  141.1783  166.5373 C.3     1  UNL1        0.0058
     11 C         142.1918  140.7422  165.1028 C.3     1  UNL1        0.0163
     12 C         141.1146  139.8535  164.5553 C.3     1  UNL1        0.0576
     13 C         139.9929  139.4008  165.4423 C.3     1  UNL1        0.0163
     14 C         139.9484  139.8369  166.8769 C.3     1  UNL1        0.0058
     15 C         141.8945  140.5260  169.8647 C.ar    1  UNL1        0.1538
     16 C         141.8499  140.9621  171.2993 C.ar    1  UNL1        0.1353
     17 N         140.8921  142.0338  171.7280 N.ar    1  UNL1       -0.2392
     18 C         139.9787  142.6695  170.7222 C.ar    1  UNL1        0.0988
     19 C         140.0231  142.2334  169.2877 C.ar    1  UNL1        0.0194
     20 C         140.9811  141.1617  168.8589 C.ar    1  UNL1        0.0146
     21 C         142.9248  138.1644  170.1982 C.3     1  UNL1        0.2525
     22 O         142.8524  139.4543  169.4360 O.3     1  UNL1       -0.4702
     23 C         142.6116  137.9397  157.4758 C.3     1  UNL1        0.1747
     24 N         143.2097  136.6127  157.1135 N.pl3   1  UNL1       -0.3106
     25 H         143.8599  136.1847  157.7164 H       1  UNL1        0.1486
     26 C         142.8173  135.9377  155.8327 C.ar    1  UNL1        0.1320
     27 N         142.1289  136.7193  154.7534 N.ar    1  UNL1       -0.2092
     28 C         141.7364  136.0443  153.4726 C.ar    1  UNL1        0.2000
     29 N         142.0324  134.5876  153.2713 N.ar    1  UNL1       -0.2239
     30 C         142.7208  133.8060  154.3507 C.ar    1  UNL1        0.0857
     31 C         143.0167  132.3493  154.1493 C.ar    1  UNL1        0.0192
     32 C         143.7051  131.5677  155.2287 C.ar    1  UNL1        0.0054
     33 C         144.0976  132.2427  156.5095 C.ar    1  UNL1        0.0716
     34 C         143.8016  133.6993  156.7108 C.ar    1  UNL1        0.0081
     35 C         143.1132  134.4810  155.6314 C.ar    1  UNL1        0.0491
     36 C         144.7860  131.4610  157.5889 C.3     1  UNL1        0.4186
     37 F         145.4744  130.6793  158.6683 F       1  UNL1       -0.1659
     38 F         145.5943  132.6718  157.9501 F       1  UNL1       -0.1659
     39 F         143.9776  130.2503  157.2276 F       1  UNL1       -0.1659
@<TRIPOS>BOND
     1    21    22    1
     2    22    15    1
     3    15    16   ar
     4    16    17   ar
     5    17    18   ar
     6    18    19   ar
     7    19    20   ar
     8     9    20    1
     9     9    10    1
    10    10    11    1
    11    11    12    1
    12    12     5    1
    13     5     6    1
    14     6     7    1
    15     7     1    1
    16     1     2   am
    17     2     3    2
    18     2    23    1
    19    23    24    1
    20    24    26    1
    21    26    27   ar
    22    27    28   ar
    23    28    29   ar
    24    29    30   ar
    25    30    31   ar
    26    31    32   ar
    27    32    33   ar
    28    33    36    1
    29    36    37    1
    30    36    38    1
    31    36    39    1
    32    33    34   ar
    33    34    35   ar
    34     7     8    1
    35    12    13    1
    36    13    14    1
    37    20    15   ar
    38    14     9    1
    39     8     5    1
    40    35    26   ar
    41    35    30   ar
    42     1     4    1
    43    24    25    1
@<TRIPOS>MOLECULE
*****
 39 43 0 0 0
SMALL
GASTEIGER

@<TRIPOS>ATOM
      1 N         142.2030  142.9204  158.8109 N.am    1  UNL1       -0.3018
      2 C         141.0337  143.2563  159.6884 C.2     1  UNL1        0.2425
      3 O         139.9839  142.2219  159.9675 O.2     1  UNL1       -0.2733
      4 H         142.8920  143.5993  158.6277 H       1  UNL1        0.1495
      5 N         142.4914  139.6121  157.3665 N.3     1  UNL1       -0.2711
      6 C         142.8113  140.2186  158.7006 C.3     1  UNL1        0.0933
      7 C         142.3225  141.5501  158.2126 C.3     1  UNL1        0.1035
      8 C         142.0026  140.9437  156.8785 C.3     1  UNL1        0.0933
      9 C         142.8498  135.5012  155.5716 C.3     1  UNL1        0.0255
     10 C         143.9917  136.4681  155.4655 C.3     1  UNL1        0.0058
     11 C         143.8722  137.8384  156.0637 C.3     1  UNL1        0.0163
     12 C         142.6109  138.2419  156.7682 C.3     1  UNL1        0.0576
     13 C         141.4690  137.2750  156.8744 C.3     1  UNL1        0.0163
     14 C         141.5885  135.9046  156.2761 C.3     1  UNL1        0.0058
     15 C         143.7403  133.0635  155.6918 C.ar    1  UNL1        0.1538
     16 C         143.8598  131.6931  155.0934 C.ar    1  UNL1        0.1353
     17 N         143.2082  131.3902  153.7767 N.ar    1  UNL1       -0.2392
     18 C         142.4371  132.4577  153.0584 C.ar    1  UNL1        0.0988
     19 C         142.3177  133.8280  153.6566 C.ar    1  UNL1        0.0194
     20 C         142.9693  134.1309  154.9734 C.ar    1  UNL1        0.0146
     21 C         144.9468  132.2515  157.8447 C.3     1  UNL1        0.2525
     22 O         144.3919  133.3663  157.0084 O.3     1  UNL1       -0.4702
     23 C         140.9142  144.6266  160.2867 C.3     1  UNL1        0.1747
     24 N         142.0024  145.1553  161.1735 N.pl3   1  UNL1       -0.3106
     25 H         142.2759  146.0987  161.1081 H       1  UNL1        0.1486
     26 C         142.6739  144.2464  162.1600 C.ar    1  UNL1        0.1320
     27 N         144.0653  143.7515  161.8974 N.ar    1  UNL1       -0.2092
     28 C         144.7367  142.8426  162.8839 C.ar    1  UNL1        0.2000
     29 N         144.0167  142.4287  164.1330 N.ar    1  UNL1       -0.2239
     30 C         142.6253  142.9235  164.3956 C.ar    1  UNL1        0.0857
     31 C         141.9053  142.5096  165.6447 C.ar    1  UNL1        0.0192
     32 C         140.5139  143.0045  165.9073 C.ar    1  UNL1        0.0054
     33 C         139.8424  143.9134  164.9208 C.ar    1  UNL1        0.0716
     34 C         140.5624  144.3273  163.6717 C.ar    1  UNL1        0.0081
     35 C         141.9539  143.8324  163.4091 C.ar    1  UNL1        0.0491
     36 C         138.4510  144.4082  165.1834 C.3     1  UNL1        0.4186
     37 F         137.0595  144.9031  165.4460 F       1  UNL1       -0.1659
     38 F         138.9324  145.1048  166.4215 F       1  UNL1       -0.1659
     39 F         137.9695  143.7116  163.9453 F       1  UNL1       -0.1659
@<TRIPOS>BOND
     1    21    22    1
     2    22    15    1
     3    15    16   ar
     4    16    17   ar
     5    17    18   ar
     6    18    19   ar
     7    19    20   ar
     8     9    20    1
     9     9    10    1
    10    10    11    1
    11    11    12    1
    12    12     5    1
    13     5     6    1
    14     6     7    1
    15     7     1    1
    16     1     2   am
    17     2     3    2
    18     2    23    1
    19    23    24    1
    20    24    26    1
    21    26    27   ar
    22    27    28   ar
    23    28    29   ar
    24    29    30   ar
    25    30    31   ar
    26    31    32   ar
    27    32    33   ar
    28    33    36    1
    29    36    37    1
    30    36    38    1
    31    36    39    1
    32    33    34   ar
    33    34    35   ar
    34     7     8    1
    35    12    13    1
    36    13    14    1
    37    20    15   ar
    38    14     9    1
    39     8     5    1
    40    35    26   ar
    41    35    30   ar
    42     1     4    1
    43    24    25    1
@<TRIPOS>MOLECULE
*****
 39 43 0 0 0
SMALL
GASTEIGER

@<TRIPOS>ATOM
      1 N         144.1790  142.2766  159.6974 N.am    1  UNL1       -0.3018
      2 C         144.0065  142.2590  161.1874 C.2     1  UNL1        0.2425
      3 O         143.4689  141.0339  161.8657 O.2     1  UNL1       -0.2733
      4 H         144.5319  143.0807  159.2522 H       1  UNL1        0.1495
      5 N         143.2976  139.3614  157.7382 N.3     1  UNL1       -0.2711
      6 C         143.7664  139.5923  159.1442 C.3     1  UNL1        0.0933
      7 C         143.8139  141.0691  158.8858 C.3     1  UNL1        0.1035
      8 C         143.3451  140.8382  157.4799 C.3     1  UNL1        0.0933
      9 C         142.2022  135.7388  155.3036 C.3     1  UNL1        0.0255
     10 C         143.5977  136.2863  155.2475 C.3     1  UNL1        0.0058
     11 C         143.9628  137.4938  156.0590 C.3     1  UNL1        0.0163
     12 C         142.9325  138.1539  156.9266 C.3     1  UNL1        0.0576
     13 C         141.5371  137.6065  156.9828 C.3     1  UNL1        0.0163
     14 C         141.1720  136.3989  156.1712 C.3     1  UNL1        0.0058
     15 C         141.7986  133.1777  155.1372 C.ar    1  UNL1        0.1538
     16 C         141.4335  131.9702  154.3256 C.ar    1  UNL1        0.1353
     17 N         141.1069  132.1163  152.8689 N.ar    1  UNL1       -0.2392
     18 C         141.1454  133.4699  152.2238 C.ar    1  UNL1        0.0988
     19 C         141.5105  134.6774  153.0353 C.ar    1  UNL1        0.0194
     20 C         141.8371  134.5313  154.4921 C.ar    1  UNL1        0.0146
     21 C         143.5314  132.7308  157.0207 C.3     1  UNL1        0.2525
     22 O         142.1252  133.0316  156.5939 O.3     1  UNL1       -0.4702
     23 C         144.3716  143.4665  161.9990 C.3     1  UNL1        0.1747
     24 N         143.3941  144.5947  162.1464 N.pl3   1  UNL1       -0.3106
     25 H         143.6427  145.3976  162.6591 H       1  UNL1        0.1486
     26 C         142.0379  144.4996  161.5126 C.ar    1  UNL1        0.1320
     27 N         141.8838  144.7106  160.0356 N.ar    1  UNL1       -0.2092
     28 C         140.5276  144.6154  159.4019 C.ar    1  UNL1        0.2000
     29 N         139.3255  144.3094  160.2452 N.ar    1  UNL1       -0.2239
     30 C         139.4795  144.0984  161.7223 C.ar    1  UNL1        0.0857
     31 C         138.2774  143.7924  162.5656 C.ar    1  UNL1        0.0192
     32 C         138.4315  143.5814  164.0426 C.ar    1  UNL1        0.0054
     33 C         139.7878  143.6765  164.6764 C.ar    1  UNL1        0.0716
     34 C         140.9899  143.9826  163.8331 C.ar    1  UNL1        0.0081
     35 C         140.8357  144.1935  162.3559 C.ar    1  UNL1        0.0491
     36 C         139.9419  143.4655  166.1535 C.3     1  UNL1        0.4186
     37 F         140.0959  143.2546  167.6306 F       1  UNL1       -0.1659
     38 F         140.8805  142.3250  165.8926 F       1  UNL1       -0.1659
     39 F         139.0032  144.6060  166.4143 F       1  UNL1       -0.1659
@<TRIPOS>BOND
     1    21    22    1
     2    22    15    1
     3    15    16   ar
     4    16    17   ar
     5    17    18   ar
     6    18    19   ar
     7    19    20   ar
     8     9    20    1
     9     9    10    1
    10    10    11    1
    11    11    12    1
    12    12     5    1
    13     5     6    1
    14     6     7    1
    15     7     1    1
    16     1     2   am
    17     2     3    2
    18     2    23    1
    19    23    24    1
    20    24    26    1
    21    26    27   ar
    22    27    28   ar
    23    28    29   ar
    24    29    30   ar
    25    30    31   ar
    26    31    32   ar
    27    32    33   ar
    28    33    36    1
    29    36    37    1
    30    36    38    1
    31    36    39    1
    32    33    34   ar
    33    34    35   ar
    34     7     8    1
    35    12    13    1
    36    13    14    1
    37    20    15   ar
    38    14     9    1
    39     8     5    1
    40    35    26   ar
    41    35    30   ar
    42     1     4    1
    43    24    25    1
@<TRIPOS>MOLECULE
*****
 39 43 0 0 0
SMALL
GASTEIGER

@<TRIPOS>ATOM
      1 N         142.4317  144.3204  159.6065 N.am    1  UNL1       -0.3018
      2 C         141.4150  145.1727  158.9065 C.2     1  UNL1        0.2425
      3 O         140.1709  145.6006  159.6272 O.2     1  UNL1       -0.2733
      4 H         143.2481  144.0396  159.1336 H       1  UNL1        0.1495
      5 N         141.8828  143.2959  163.0363 N.3     1  UNL1       -0.2711
      6 C         141.4713  142.7696  161.6933 C.3     1  UNL1        0.0933
      7 C         142.2043  143.8961  161.0272 C.3     1  UNL1        0.1035
      8 C         142.6158  144.4224  162.3701 C.3     1  UNL1        0.0933
      9 C         141.2006  142.0229  167.2982 C.3     1  UNL1        0.0255
     10 C         142.3597  141.4663  166.5256 C.3     1  UNL1        0.0058
     11 C         142.5870  141.8907  165.1050 C.3     1  UNL1        0.0163
     12 C         141.6554  142.8716  164.4569 C.3     1  UNL1        0.0576
     13 C         140.4964  143.4281  165.2295 C.3     1  UNL1        0.0163
     14 C         140.2690  143.0037  166.6502 C.3     1  UNL1        0.0058
     15 C         141.8956  142.0761  169.8011 C.ar    1  UNL1        0.1538
     16 C         141.6682  141.6517  171.2217 C.ar    1  UNL1        0.1353
     17 N         140.5185  140.7497  171.5601 N.ar    1  UNL1       -0.2392
     18 C         139.5961  140.2721  170.4779 C.ar    1  UNL1        0.0988
     19 C         139.8235  140.6965  169.0573 C.ar    1  UNL1        0.0194
     20 C         140.9733  141.5985  168.7189 C.ar    1  UNL1        0.0146
     21 C         144.4198  142.6659  169.9758 C.3     1  UNL1        0.2525
     22 O         143.0453  142.9781  169.4626 O.3     1  UNL1       -0.4702
     23 C         141.6422  145.5970  157.4859 C.3     1  UNL1        0.1747
     24 N         141.2374  144.6933  156.3593 N.pl3   1  UNL1       -0.3106
     25 H         141.9240  144.2142  155.8414 H       1  UNL1        0.1486
     26 C         139.7862  144.5194  156.0217 C.ar    1  UNL1        0.1320
     27 N         139.0751  145.5608  155.2094 N.ar    1  UNL1       -0.2092
     28 C         137.6240  145.3869  154.8719 C.ar    1  UNL1        0.2000
     29 N         136.8839  144.1717  155.3467 N.ar    1  UNL1       -0.2239
     30 C         137.5950  143.1302  156.1589 C.ar    1  UNL1        0.0857
     31 C         136.8549  141.9150  156.6337 C.ar    1  UNL1        0.0192
     32 C         137.5660  140.8735  157.4459 C.ar    1  UNL1        0.0054
     33 C         139.0172  141.0474  157.7835 C.ar    1  UNL1        0.0716
     34 C         139.7572  142.2627  157.3088 C.ar    1  UNL1        0.0081
     35 C         139.0461  143.3041  156.4964 C.ar    1  UNL1        0.0491
     36 C         139.7282  140.0060  158.5958 C.3     1  UNL1        0.4186
     37 F         140.4393  138.9645  159.4080 F       1  UNL1       -0.1659
     38 F         138.4479  139.6888  159.3099 F       1  UNL1       -0.1659
     39 F         141.0086  140.3232  157.8816 F       1  UNL1       -0.1659
@<TRIPOS>BOND
     1    21    22    1
     2    22    15    1
     3    15    16   ar
     4    16    17   ar
     5    17    18   ar
     6    18    19   ar
     7    19    20   ar
     8     9    20    1
     9     9    10    1
    10    10    11    1
    11    11    12    1
    12    12     5    1
    13     5     6    1
    14     6     7    1
    15     7     1    1
    16     1     2   am
    17     2     3    2
    18     2    23    1
    19    23    24    1
    20    24    26    1
    21    26    27   ar
    22    27    28   ar
    23    28    29   ar
    24    29    30   ar
    25    30    31   ar
    26    31    32   ar
    27    32    33   ar
    28    33    36    1
    29    36    37    1
    30    36    38    1
    31    36    39    1
    32    33    34   ar
    33    34    35   ar
    34     7     8    1
    35    12    13    1
    36    13    14    1
    37    20    15   ar
    38    14     9    1
    39     8     5    1
    40    35    26   ar
    41    35    30   ar
    42     1     4    1
    43    24    25    1
@<TRIPOS>MOLECULE
*****
 39 43 0 0 0
SMALL
GASTEIGER

@<TRIPOS>ATOM
      1 N         140.2285  143.2444  161.4048 N.am    1  UNL1       -0.3018
      2 C         138.8470  143.4930  161.9337 C.2     1  UNL1        0.2425
      3 O         137.7184  142.5874  161.5383 O.2     1  UNL1       -0.2733
      4 H         140.9693  143.8387  161.6642 H       1  UNL1        0.1495
      5 N         140.8388  140.4582  159.1734 N.3     1  UNL1       -0.2711
      6 C         140.7827  140.6322  160.6622 C.3     1  UNL1        0.0933
      7 C         140.4813  142.0903  160.4805 C.3     1  UNL1        0.1035
      8 C         140.5374  141.9163  158.9917 C.3     1  UNL1        0.0933
      9 C         141.5973  136.9960  156.4008 C.3     1  UNL1        0.0255
     10 C         140.1944  137.3386  156.8065 C.3     1  UNL1        0.0058
     11 C         139.9416  138.4926  157.7307 C.3     1  UNL1        0.0163
     12 C         141.0916  139.3041  158.2492 C.3     1  UNL1        0.0576
     13 C         142.4945  138.9616  157.8435 C.3     1  UNL1        0.0163
     14 C         142.7473  137.8075  156.9193 C.3     1  UNL1        0.0058
     15 C         142.5992  134.6385  155.9670 C.ar    1  UNL1        0.1538
     16 C         142.8520  133.4844  155.0427 C.ar    1  UNL1        0.1353
     17 N         142.3557  133.5338  153.6281 N.ar    1  UNL1       -0.2392
     18 C         141.6065  134.7372  153.1377 C.ar    1  UNL1        0.0988
     19 C         141.3537  135.8913  154.0619 C.ar    1  UNL1        0.0194
     20 C         141.8501  135.8419  155.4766 C.ar    1  UNL1        0.0146
     21 C         144.0601  133.5196  157.8011 C.3     1  UNL1        0.2525
     22 O         143.0956  134.5891  157.3816 O.3     1  UNL1       -0.4702
     23 C         138.5942  144.6470  162.8579 C.3     1  UNL1        0.1747
     24 N         139.2540  144.6880  164.2044 N.pl3   1  UNL1       -0.3106
     25 H         138.7240  144.9022  165.0060 H       1  UNL1        0.1486
     26 C         140.7213  144.4028  164.3296 C.ar    1  UNL1        0.1320
     27 N         141.7168  145.2632  163.6093 N.ar    1  UNL1       -0.2092
     28 C         143.1840  144.9779  163.7345 C.ar    1  UNL1        0.2000
     29 N         143.6559  143.8322  164.5800 N.ar    1  UNL1       -0.2239
     30 C         142.6605  142.9718  165.3002 C.ar    1  UNL1        0.0857
     31 C         143.1323  141.8262  166.1457 C.ar    1  UNL1        0.0192
     32 C         142.1369  140.9658  166.8660 C.ar    1  UNL1        0.0054
     33 C         140.6696  141.2510  166.7408 C.ar    1  UNL1        0.0716
     34 C         140.1977  142.3967  165.8953 C.ar    1  UNL1        0.0081
     35 C         141.1932  143.2571  165.1750 C.ar    1  UNL1        0.0491
     36 C         139.6742  140.3906  167.4611 C.3     1  UNL1        0.4186
     37 F         138.6787  139.5302  168.1814 F       1  UNL1       -0.1659
     38 F         140.1499  140.9391  168.7736 F       1  UNL1       -0.1659
     39 F         139.1984  139.8422  166.1485 F       1  UNL1       -0.1659
@<TRIPOS>BOND
     1    21    22    1
     2    22    15    1
     3    15    16   ar
     4    16    17   ar
     5    17    18   ar
     6    18    19   ar
     7    19    20   ar
     8     9    20    1
     9     9    10    1
    10    10    11    1
    11    11    12    1
    12    12     5    1
    13     5     6    1
    14     6     7    1
    15     7     1    1
    16     1     2   am
    17     2     3    2
    18     2    23    1
    19    23    24    1
    20    24    26    1
    21    26    27   ar
    22    27    28   ar
    23    28    29   ar
    24    29    30   ar
    25    30    31   ar
    26    31    32   ar
    27    32    33   ar
    28    33    36    1
    29    36    37    1
    30    36    38    1
    31    36    39    1
    32    33    34   ar
    33    34    35   ar
    34     7     8    1
    35    12    13    1
    36    13    14    1
    37    20    15   ar
    38    14     9    1
    39     8     5    1
    40    35    26   ar
    41    35    30   ar
    42     1     4    1
    43    24    25    1
@<TRIPOS>MOLECULE
*****
 39 43 0 0 0
SMALL
GASTEIGER

@<TRIPOS>ATOM
      1 N         144.0703  139.6847  159.3972 N.am    1  UNL1       -0.3018
      2 C         144.1224  140.8841  158.4979 C.2     1  UNL1        0.2425
      3 O         143.7801  142.2414  159.0373 O.2     1  UNL1       -0.2733
      4 H         144.2949  138.7939  159.0432 H       1  UNL1        0.1495
      5 N         143.1183  140.0658  162.8704 N.3     1  UNL1       -0.2711
      6 C         144.3038  140.4699  162.0451 C.3     1  UNL1        0.0933
      7 C         143.6759  139.8425  160.8359 C.3     1  UNL1        0.1035
      8 C         142.4904  139.4384  161.6611 C.3     1  UNL1        0.0933
      9 C         141.9353  140.5393  167.1862 C.3     1  UNL1        0.0255
     10 C         142.7428  139.3506  166.7559 C.3     1  UNL1        0.0058
     11 C         143.1371  139.1928  165.3173 C.3     1  UNL1        0.0163
     12 C         142.7240  140.2236  164.3090 C.3     1  UNL1        0.0576
     13 C         141.9165  141.4122  164.7392 C.3     1  UNL1        0.0163
     14 C         141.5222  141.5701  166.1779 C.3     1  UNL1        0.0058
     15 C         142.3603  141.5618  169.5365 C.ar    1  UNL1        0.1538
     16 C         141.9659  141.7196  170.9751 C.ar    1  UNL1        0.1353
     17 N         140.7524  141.0128  171.5020 N.ar    1  UNL1       -0.2392
     18 C         139.9332  140.1481  170.5903 C.ar    1  UNL1        0.0988
     19 C         140.3275  139.9903  169.1518 C.ar    1  UNL1        0.0194
     20 C         141.5411  140.6971  168.6248 C.ar    1  UNL1        0.0146
     21 C         144.5957  142.8157  169.9618 C.3     1  UNL1        0.2525
     22 O         143.5738  142.2687  169.0096 O.3     1  UNL1       -0.4702
     23 C         144.5167  140.7264  157.0594 C.3     1  UNL1        0.1747
     24 N         144.6310  139.3566  156.4589 N.pl3   1  UNL1       -0.3106
     25 H         145.2468  138.6966  156.8520 H       1  UNL1        0.1486
     26 C         143.8072  138.9923  155.2594 C.ar    1  UNL1        0.1320
     27 N         143.3874  140.0546  154.2872 N.ar    1  UNL1       -0.2092
     28 C         142.5636  139.6903  153.0878 C.ar    1  UNL1        0.2000
     29 N         142.1596  138.2637  152.8606 N.ar    1  UNL1       -0.2239
     30 C         142.5794  137.2014  153.8328 C.ar    1  UNL1        0.0857
     31 C         142.1754  135.7748  153.6056 C.ar    1  UNL1        0.0192
     32 C         142.5952  134.7125  154.5778 C.ar    1  UNL1        0.0054
     33 C         143.4191  135.0768  155.7773 C.ar    1  UNL1        0.0716
     34 C         143.8231  136.5034  156.0045 C.ar    1  UNL1        0.0081
     35 C         143.4032  137.5657  155.0322 C.ar    1  UNL1        0.0491
     36 C         143.8389  134.0145  156.7495 C.3     1  UNL1        0.4186
     37 F         144.2587  132.9521  157.7218 F       1  UNL1       -0.1659
     38 F         144.3842  133.1945  155.6180 F       1  UNL1       -0.1659
     39 F         143.2935  134.8344  157.8809 F       1  UNL1       -0.1659
@<TRIPOS>BOND
     1    21    22    1
     2    22    15    1
     3    15    16   ar
     4    16    17   ar
     5    17    18   ar
     6    18    19   ar
     7    19    20   ar
     8     9    20    1
     9     9    10    1
    10    10    11    1
    11    11    12    1
    12    12     5    1
    13     5     6    1
    14     6     7    1
    15     7     1    1
    16     1     2   am
    17     2     3    2
    18     2    23    1
    19    23    24    1
    20    24    26    1
    21    26    27   ar
    22    27    28   ar
    23    28    29   ar
    24    29    30   ar
    25    30    31   ar
    26    31    32   ar
    27    32    33   ar
    28    33    36    1
    29    36    37    1
    30    36    38    1
    31    36    39    1
    32    33    34   ar
    33    34    35   ar
    34     7     8    1
    35    12    13    1
    36    13    14    1
    37    20    15   ar
    38    14     9    1
    39     8     5    1
    40    35    26   ar
    41    35    30   ar
    42     1     4    1
    43    24    25    1
@<TRIPOS>MOLECULE
*****
 39 43 0 0 0
SMALL
GASTEIGER

@<TRIPOS>ATOM
      1 N         143.8967  139.2328  158.1387 N.am    1  UNL1       -0.3018
      2 C         142.8014  138.9959  157.1415 C.2     1  UNL1        0.2425
      3 O         141.3801  138.8704  157.6042 O.2     1  UNL1       -0.2733
      4 H         144.8295  139.3152  157.8350 H       1  UNL1        0.1495
      5 N         143.1093  139.5015  161.6632 N.3     1  UNL1       -0.2711
      6 C         143.8108  138.4889  160.8073 C.3     1  UNL1        0.0933
      7 C         143.5705  139.3441  159.5986 C.3     1  UNL1        0.1035
      8 C         142.8690  140.3567  160.4544 C.3     1  UNL1        0.0933
      9 C         142.1309  139.8354  166.0428 C.3     1  UNL1        0.0255
     10 C         143.1955  140.7059  165.4436 C.3     1  UNL1        0.0058
     11 C         143.5216  140.5946  163.9838 C.3     1  UNL1        0.0163
     12 C         142.7832  139.6128  163.1230 C.3     1  UNL1        0.0576
     13 C         141.7186  138.7424  163.7221 C.3     1  UNL1        0.0163
     14 C         141.3925  138.8536  165.1821 C.3     1  UNL1        0.0058
     15 C         140.6392  140.7784  167.9495 C.ar    1  UNL1        0.1538
     16 C         140.3131  140.8896  169.4094 C.ar    1  UNL1        0.1353
     17 N         141.1526  140.1693  170.4224 N.ar    1  UNL1       -0.2392
     18 C         142.3182  139.3376  169.9756 C.ar    1  UNL1        0.0988
     19 C         142.6443  139.2263  168.5158 C.ar    1  UNL1        0.0194
     20 C         141.8048  139.9467  167.5026 C.ar    1  UNL1        0.0146
     21 C         140.2444  142.8281  166.4027 C.3     1  UNL1        0.2525
     22 O         139.7996  141.4987  166.9365 O.3     1  UNL1       -0.4702
     23 C         143.1275  138.8845  155.6816 C.3     1  UNL1        0.1747
     24 N         143.6619  137.5967  155.1286 N.pl3   1  UNL1       -0.3106
     25 H         144.6259  137.4027  155.1767 H       1  UNL1        0.1486
     26 C         142.7275  136.6043  154.5023 C.ar    1  UNL1        0.1320
     27 N         141.7502  137.0514  153.4559 N.ar    1  UNL1       -0.2092
     28 C         140.8158  136.0591  152.8296 C.ar    1  UNL1        0.2000
     29 N         140.8587  134.6198  153.2497 N.ar    1  UNL1       -0.2239
     30 C         141.8360  134.1727  154.2961 C.ar    1  UNL1        0.0857
     31 C         141.8790  132.7334  154.7163 C.ar    1  UNL1        0.0192
     32 C         142.8563  132.2864  155.7627 C.ar    1  UNL1        0.0054
     33 C         143.7907  133.2787  156.3890 C.ar    1  UNL1        0.0716
     34 C         143.7478  134.7180  155.9689 C.ar    1  UNL1        0.0081
     35 C         142.7704  135.1650  154.9224 C.ar    1  UNL1        0.0491
     36 C         144.7680  132.8317  157.4354 C.3     1  UNL1        0.4186
     37 F         145.7454  132.3847  158.4819 F       1  UNL1       -0.1659
     38 F         145.4708  131.9840  156.4169 F       1  UNL1       -0.1659
     39 F         144.0652  133.6794  158.4539 F       1  UNL1       -0.1659
@<TRIPOS>BOND
     1    21    22    1
     2    22    15    1
     3    15    16   ar
     4    16    17   ar
     5    17    18   ar
     6    18    19   ar
     7    19    20   ar
     8     9    20    1
     9     9    10    1
    10    10    11    1
    11    11    12    1
    12    12     5    1
    13     5     6    1
    14     6     7    1
    15     7     1    1
    16     1     2   am
    17     2     3    2
    18     2    23    1
    19    23    24    1
    20    24    26    1
    21    26    27   ar
    22    27    28   ar
    23    28    29   ar
    24    29    30   ar
    25    30    31   ar
    26    31    32   ar
    27    32    33   ar
    28    33    36    1
    29    36    37    1
    30    36    38    1
    31    36    39    1
    32    33    34   ar
    33    34    35   ar
    34     7     8    1
    35    12    13    1
    36    13    14    1
    37    20    15   ar
    38    14     9    1
    39     8     5    1
    40    35    26   ar
    41    35    30   ar
    42     1     4    1
    43    24    25    1
