@<TRIPOS>MOLECULE
*****
 24 27 0 0 0
SMALL
GASTEIGER

@<TRIPOS>ATOM
      1 C         138.4713  138.9537  166.0549 C.ar    1  UNL1        0.1477
      2 C         138.7888  137.6049  165.4803 C.ar    1  UNL1        0.0373
      3 C         138.8373  137.4158  163.9931 C.ar    1  UNL1        0.0002
      4 C         138.5684  138.5755  163.0804 C.ar    1  UNL1       -0.0059
      5 C         138.2509  139.9242  163.6550 C.ar    1  UNL1        0.0002
      6 C         138.2023  140.1133  165.1423 C.ar    1  UNL1        0.0373
      7 O         138.4227  139.1428  167.5422 O.3     1  UNL1       -0.4313
      8 CL        144.8495  142.9017  170.0303 Cl      1  UNL1       -0.0806
      9 C         143.4364  142.4041  169.9571 C.ar    1  UNL1        0.0774
     10 C         142.4415  142.8148  171.0019 C.ar    1  UNL1        0.1119
     11 N         141.0284  142.3172  170.9287 N.ar    1  UNL1       -0.2236
     12 C         140.6100  141.4089  169.8107 C.ar    1  UNL1        0.1721
     13 N         139.2969  140.7639  169.4794 N.ar    1  UNL1       -0.1859
     14 C         139.4802  139.9545  168.2299 C.ar    1  UNL1        0.2642
     15 S         140.9066  140.0993  167.7889 S.2     1  UNL1       -0.0267
     16 C         141.6048  140.9982  168.7659 C.ar    1  UNL1        0.0705
     17 C         143.0180  141.4958  168.8391 C.ar    1  UNL1        0.0227
     18 C         138.6169  138.3864  161.5932 C.3     1  UNL1        0.0991
     19 N         139.9394  138.3224  160.8881 N.3     1  UNL1       -0.2690
     20 C         140.0248  138.6380  159.4242 C.3     1  UNL1        0.0724
     21 C         141.3473  138.5739  158.7191 C.3     1  UNL1        0.0174
     22 C         142.5842  138.1942  159.4779 C.3     1  UNL1        0.0029
     23 C         142.4987  137.8786  160.9419 C.3     1  UNL1        0.0174
     24 C         141.1763  137.9427  161.6469 C.3     1  UNL1        0.0724
@<TRIPOS>BOND
     1     8     9    1
     2     9    10   ar
     3    10    11   ar
     4    11    12   ar
     5    12    13   ar
     6    13    14   ar
     7    14     7    1
     8     7     1    1
     9     1     2   ar
    10     2     3   ar
    11     3     4   ar
    12     4    18    1
    13    18    19    1
    14    19    20    1
    15    20    21    1
    16    21    22    1
    17    22    23    1
    18    23    24    1
    19     4     5   ar
    20     5     6   ar
    21    14    15   ar
    22    15    16   ar
    23    16    17   ar
    24    17     9   ar
    25    16    12   ar
    26     6     1   ar
    27    24    19    1
@<TRIPOS>MOLECULE
*****
 24 27 0 0 0
SMALL
GASTEIGER

@<TRIPOS>ATOM
      1 C         138.4380  138.9059  165.3380 C.ar    1  UNL1        0.1477
      2 C         138.0325  140.0338  164.4361 C.ar    1  UNL1        0.0373
      3 C         138.2387  139.9207  162.9546 C.ar    1  UNL1        0.0002
      4 C         138.8505  138.6797  162.3752 C.ar    1  UNL1       -0.0059
      5 C         139.2560  137.5519  163.2771 C.ar    1  UNL1        0.0002
      6 C         139.0498  137.6650  164.7586 C.ar    1  UNL1        0.0373
      7 O         138.2318  139.0190  166.8195 O.3     1  UNL1       -0.4313
      8 CL        144.4431  142.6104  170.0045 Cl      1  UNL1       -0.0806
      9 C         143.0946  141.9694  169.8613 C.ar    1  UNL1        0.0774
     10 C         142.1853  141.8619  171.0494 C.ar    1  UNL1        0.1119
     11 N         140.8368  141.2208  170.9062 N.ar    1  UNL1       -0.2236
     12 C         140.3976  140.6872  169.5749 C.ar    1  UNL1        0.1721
     13 N         139.1350  140.0090  169.1324 N.ar    1  UNL1       -0.1859
     14 C         139.2640  139.6973  167.6708 C.ar    1  UNL1        0.2642
     15 S         140.6063  140.1828  167.2100 S.2     1  UNL1       -0.0267
     16 C         141.3069  140.7947  168.3869 C.ar    1  UNL1        0.0705
     17 C         142.6554  141.4357  168.5301 C.ar    1  UNL1        0.0227
     18 C         139.0567  138.5666  160.8937 C.3     1  UNL1        0.0991
     19 N         139.2389  139.8038  160.0652 N.3     1  UNL1       -0.2690
     20 C         140.5387  140.5511  160.1091 C.3     1  UNL1        0.0724
     21 C         140.7209  141.7883  159.2806 C.3     1  UNL1        0.0174
     22 C         139.6032  142.2780  158.4083 C.3     1  UNL1        0.0029
     23 C         138.3034  141.5306  158.3644 C.3     1  UNL1        0.0174
     24 C         138.1213  140.2935  159.1929 C.3     1  UNL1        0.0724
@<TRIPOS>BOND
     1     8     9    1
     2     9    10   ar
     3    10    11   ar
     4    11    12   ar
     5    12    13   ar
     6    13    14   ar
     7    14     7    1
     8     7     1    1
     9     1     2   ar
    10     2     3   ar
    11     3     4   ar
    12     4    18    1
    13    18    19    1
    14    19    20    1
    15    20    21    1
    16    21    22    1
    17    22    23    1
    18    23    24    1
    19     4     5   ar
    20     5     6   ar
    21    14    15   ar
    22    15    16   ar
    23    16    17   ar
    24    17     9   ar
    25    16    12   ar
    26     6     1   ar
    27    24    19    1
@<TRIPOS>MOLECULE
*****
 24 27 0 0 0
SMALL
GASTEIGER

@<TRIPOS>ATOM
      1 C         138.9665  138.3126  165.3157 C.ar    1  UNL1        0.1477
      2 C         137.9126  138.2186  166.3790 C.ar    1  UNL1        0.0373
      3 C         138.0827  138.9612  167.6712 C.ar    1  UNL1        0.0002
      4 C         139.3066  139.7978  167.8999 C.ar    1  UNL1       -0.0059
      5 C         140.3604  139.8918  166.8366 C.ar    1  UNL1        0.0002
      6 C         140.1903  139.1492  165.5445 C.ar    1  UNL1        0.0373
      7 O         138.7964  137.5700  164.0235 O.3     1  UNL1       -0.4313
      8 CL        142.3040  140.2763  157.5431 Cl      1  UNL1       -0.0806
      9 C         142.0411  139.4785  158.7858 C.ar    1  UNL1        0.0774
     10 C         143.0321  138.4477  159.2389 C.ar    1  UNL1        0.1119
     11 N         142.7692  137.6498  160.4816 N.ar    1  UNL1       -0.2236
     12 C         141.5153  137.8827  161.2711 C.ar    1  UNL1        0.1721
     13 N         140.9887  137.2540  162.5270 N.ar    1  UNL1       -0.1859
     14 C         139.6722  137.8962  162.8501 C.ar    1  UNL1        0.2642
     15 S         139.3852  138.9219  161.7939 S.2     1  UNL1       -0.0267
     16 C         140.5243  138.9135  160.8180 C.ar    1  UNL1        0.0705
     17 C         140.7872  139.7114  159.5753 C.ar    1  UNL1        0.0227
     18 C         139.4767  140.5404  169.1921 C.3     1  UNL1        0.0991
     19 N         140.7890  141.1906  169.5163 N.3     1  UNL1       -0.2690
     20 C         142.0267  140.3544  169.6536 C.3     1  UNL1        0.0724
     21 C         143.3390  141.0046  169.9779 C.3     1  UNL1        0.0174
     22 C         143.4136  142.4911  170.1648 C.3     1  UNL1        0.0029
     23 C         142.1759  143.3273  170.0275 C.3     1  UNL1        0.0174
     24 C         140.8636  142.6770  169.7033 C.3     1  UNL1        0.0724
@<TRIPOS>BOND
     1     8     9    1
     2     9    10   ar
     3    10    11   ar
     4    11    12   ar
     5    12    13   ar
     6    13    14   ar
     7    14     7    1
     8     7     1    1
     9     1     2   ar
    10     2     3   ar
    11     3     4   ar
    12     4    18    1
    13    18    19    1
    14    19    20    1
    15    20    21    1
    16    21    22    1
    17    22    23    1
    18    23    24    1
    19     4     5   ar
    20     5     6   ar
    21    14    15   ar
    22    15    16   ar
    23    16    17   ar
    24    17     9   ar
    25    16    12   ar
    26     6     1   ar
    27    24    19    1
@<TRIPOS>MOLECULE
*****
 24 27 0 0 0
SMALL
GASTEIGER

@<TRIPOS>ATOM
      1 C         139.0451  138.1182  164.9611 C.ar    1  UNL1        0.1477
      2 C         140.2773  138.9412  165.1944 C.ar    1  UNL1        0.0373
      3 C         140.4260  139.7254  166.4644 C.ar    1  UNL1        0.0002
      4 C         139.3425  139.6866  167.5011 C.ar    1  UNL1       -0.0059
      5 C         138.1104  138.8635  167.2677 C.ar    1  UNL1        0.0002
      6 C         137.9617  138.0793  165.9977 C.ar    1  UNL1        0.0373
      7 O         138.8964  137.3340  163.6911 O.3     1  UNL1       -0.4313
      8 CL        140.5179  140.6135  156.7456 Cl      1  UNL1       -0.0806
      9 C         139.7624  140.1720  157.9639 C.ar    1  UNL1        0.0774
     10 C         138.3076  140.5083  158.1070 C.ar    1  UNL1        0.1119
     11 N         137.5521  140.0668  159.3253 N.ar    1  UNL1       -0.2236
     12 C         138.2514  139.2892  160.4006 C.ar    1  UNL1        0.1721
     13 N         137.7710  138.7236  161.7042 N.ar    1  UNL1       -0.1859
     14 C         138.9289  138.0379  162.3668 C.ar    1  UNL1        0.2642
     15 S         140.1249  138.1796  161.4727 S.2     1  UNL1       -0.0267
     16 C         139.7061  138.9529  160.2575 C.ar    1  UNL1        0.0705
     17 C         140.4617  139.3944  159.0392 C.ar    1  UNL1        0.0227
     18 C         139.4912  140.4708  168.7711 C.3     1  UNL1        0.0991
     19 N         140.8523  140.9018  169.2314 N.3     1  UNL1       -0.2690
     20 C         141.2991  142.3190  169.0272 C.3     1  UNL1        0.0724
     21 C         142.6602  142.7501  169.4875 C.3     1  UNL1        0.0174
     22 C         143.5744  141.7638  170.1519 C.3     1  UNL1        0.0029
     23 C         143.1275  140.3465  170.3561 C.3     1  UNL1        0.0174
     24 C         141.7665  139.9155  169.8958 C.3     1  UNL1        0.0724
@<TRIPOS>BOND
     1     8     9    1
     2     9    10   ar
     3    10    11   ar
     4    11    12   ar
     5    12    13   ar
     6    13    14   ar
     7    14     7    1
     8     7     1    1
     9     1     2   ar
    10     2     3   ar
    11     3     4   ar
    12     4    18    1
    13    18    19    1
    14    19    20    1
    15    20    21    1
    16    21    22    1
    17    22    23    1
    18    23    24    1
    19     4     5   ar
    20     5     6   ar
    21    14    15   ar
    22    15    16   ar
    23    16    17   ar
    24    17     9   ar
    25    16    12   ar
    26     6     1   ar
    27    24    19    1
@<TRIPOS>MOLECULE
*****
 24 27 0 0 0
SMALL
GASTEIGER

@<TRIPOS>ATOM
      1 C         139.4085  138.0737  165.0589 C.ar    1  UNL1        0.1477
      2 C         138.1927  138.0926  165.9372 C.ar    1  UNL1        0.0373
      3 C         138.1871  138.9135  167.1926 C.ar    1  UNL1        0.0002
      4 C         139.3973  139.7156  167.5696 C.ar    1  UNL1       -0.0059
      5 C         140.6130  139.6967  166.6913 C.ar    1  UNL1        0.0002
      6 C         140.6186  138.8758  165.4359 C.ar    1  UNL1        0.0373
      7 O         139.4141  137.2528  163.8035 O.3     1  UNL1       -0.4313
      8 CL        137.4413  141.3692  157.4170 Cl      1  UNL1       -0.0806
      9 C         138.1895  140.4514  158.3378 C.ar    1  UNL1        0.0774
     10 C         139.4435  139.7760  157.8674 C.ar    1  UNL1        0.1119
     11 N         140.1917  138.8582  158.7882 N.ar    1  UNL1       -0.2236
     12 C         139.6859  138.6158  160.1794 C.ar    1  UNL1        0.1721
     13 N         140.2064  137.7700  161.3035 N.ar    1  UNL1       -0.1859
     14 C         139.2741  137.9227  162.4686 C.ar    1  UNL1        0.2642
     15 S         138.1774  138.8628  162.0646 S.2     1  UNL1       -0.0267
     16 C         138.4319  139.2911  160.6497 C.ar    1  UNL1        0.0705
     17 C         137.6837  140.2090  159.7289 C.ar    1  UNL1        0.0227
     18 C         139.3917  140.5366  168.8250 C.3     1  UNL1        0.0991
     19 N         140.6524  141.2024  169.2914 N.3     1  UNL1       -0.2690
     20 C         141.8828  140.3834  169.5469 C.3     1  UNL1        0.0724
     21 C         143.1435  141.0492  170.0133 C.3     1  UNL1        0.0174
     22 C         143.1737  142.5340  170.2240 C.3     1  UNL1        0.0029
     23 C         141.9432  143.3530  169.9685 C.3     1  UNL1        0.0174
     24 C         140.6826  142.6872  169.5022 C.3     1  UNL1        0.0724
@<TRIPOS>BOND
     1     8     9    1
     2     9    10   ar
     3    10    11   ar
     4    11    12   ar
     5    12    13   ar
     6    13    14   ar
     7    14     7    1
     8     7     1    1
     9     1     2   ar
    10     2     3   ar
    11     3     4   ar
    12     4    18    1
    13    18    19    1
    14    19    20    1
    15    20    21    1
    16    21    22    1
    17    22    23    1
    18    23    24    1
    19     4     5   ar
    20     5     6   ar
    21    14    15   ar
    22    15    16   ar
    23    16    17   ar
    24    17     9   ar
    25    16    12   ar
    26     6     1   ar
    27    24    19    1
@<TRIPOS>MOLECULE
*****
 24 27 0 0 0
SMALL
GASTEIGER

@<TRIPOS>ATOM
      1 C         139.5845  144.0984  163.8370 C.ar    1  UNL1        0.1477
      2 C         138.3673  143.2291  163.7238 C.ar    1  UNL1        0.0373
      3 C         138.2505  141.9896  164.5604 C.ar    1  UNL1        0.0002
      4 C         139.3510  141.6194  165.5103 C.ar    1  UNL1       -0.0059
      5 C         140.5681  142.4887  165.6234 C.ar    1  UNL1        0.0002
      6 C         140.6849  143.7282  164.7868 C.ar    1  UNL1        0.0373
      7 O         139.7013  145.3379  163.0003 O.3     1  UNL1       -0.4313
      8 CL        143.0803  143.8211  156.0789 Cl      1  UNL1       -0.0806
      9 C         142.1698  144.4135  157.1133 C.ar    1  UNL1        0.0774
     10 C         141.1413  145.4296  156.7136 C.ar    1  UNL1        0.1119
     11 N         140.2308  146.0221  157.7480 N.ar    1  UNL1       -0.2236
     12 C         140.3488  145.5985  159.1821 C.ar    1  UNL1        0.1721
     13 N         139.5958  146.0051  160.4140 N.ar    1  UNL1       -0.1859
     14 C         140.1589  145.2404  161.5751 C.ar    1  UNL1        0.2642
     15 S         141.2599  144.3611  161.0608 S.2     1  UNL1       -0.0267
     16 C         141.3772  144.5824  159.5818 C.ar    1  UNL1        0.0705
     17 C         142.2878  143.9899  158.5474 C.ar    1  UNL1        0.0227
     18 C         139.2342  140.3799  166.3469 C.3     1  UNL1        0.0991
     19 N         140.2891  140.0595  167.3641 N.3     1  UNL1       -0.2690
     20 C         141.6331  139.5633  166.9199 C.3     1  UNL1        0.0724
     21 C         142.6881  139.2429  167.9371 C.3     1  UNL1        0.0174
     22 C         142.3989  139.4187  169.3984 C.3     1  UNL1        0.0029
     23 C         141.0547  139.9149  169.8426 C.3     1  UNL1        0.0174
     24 C         139.9999  140.2353  168.8254 C.3     1  UNL1        0.0724
@<TRIPOS>BOND
     1     8     9    1
     2     9    10   ar
     3    10    11   ar
     4    11    12   ar
     5    12    13   ar
     6    13    14   ar
     7    14     7    1
     8     7     1    1
     9     1     2   ar
    10     2     3   ar
    11     3     4   ar
    12     4    18    1
    13    18    19    1
    14    19    20    1
    15    20    21    1
    16    21    22    1
    17    22    23    1
    18    23    24    1
    19     4     5   ar
    20     5     6   ar
    21    14    15   ar
    22    15    16   ar
    23    16    17   ar
    24    17     9   ar
    25    16    12   ar
    26     6     1   ar
    27    24    19    1
@<TRIPOS>MOLECULE
*****
 24 27 0 0 0
SMALL
GASTEIGER

@<TRIPOS>ATOM
      1 C         138.3950  141.2015  164.1281 C.ar    1  UNL1        0.1477
      2 C         139.3122  142.1609  164.8269 C.ar    1  UNL1        0.0373
      3 C         139.8905  141.8062  166.1647 C.ar    1  UNL1        0.0002
      4 C         139.5516  140.4920  166.8037 C.ar    1  UNL1       -0.0059
      5 C         138.6344  139.5327  166.1049 C.ar    1  UNL1        0.0002
      6 C         138.0561  139.8874  164.7670 C.ar    1  UNL1        0.0373
      7 O         137.8167  141.5562  162.7902 O.3     1  UNL1       -0.4313
      8 CL        142.6860  144.1152  157.1898 Cl      1  UNL1       -0.0806
      9 C         141.6627  144.1114  158.2866 C.ar    1  UNL1        0.0774
     10 C         141.0522  145.4018  158.7471 C.ar    1  UNL1        0.1119
     11 N         140.0289  145.3980  159.8439 N.ar    1  UNL1       -0.2236
     12 C         139.6162  144.1039  160.4802 C.ar    1  UNL1        0.1721
     13 N         138.6391  143.7900  161.5741 N.ar    1  UNL1       -0.1859
     14 C         138.6457  142.3055  161.7896 C.ar    1  UNL1        0.2642
     15 S         139.6270  141.7020  160.8289 S.2     1  UNL1       -0.0267
     16 C         140.2268  142.8135  160.0196 C.ar    1  UNL1        0.0705
     17 C         141.2500  142.8173  158.9228 C.ar    1  UNL1        0.0227
     18 C         140.1298  140.1373  168.1415 C.3     1  UNL1        0.0991
     19 N         141.0326  141.1044  168.8486 N.3     1  UNL1       -0.2690
     20 C         140.4655  142.3530  169.4561 C.3     1  UNL1        0.0724
     21 C         141.3682  143.3201  170.1632 C.3     1  UNL1        0.0174
     22 C         142.8382  143.0384  170.2627 C.3     1  UNL1        0.0029
     23 C         143.4053  141.7896  169.6551 C.3     1  UNL1        0.0174
     24 C         142.5026  140.8227  168.9481 C.3     1  UNL1        0.0724
@<TRIPOS>BOND
     1     8     9    1
     2     9    10   ar
     3    10    11   ar
     4    11    12   ar
     5    12    13   ar
     6    13    14   ar
     7    14     7    1
     8     7     1    1
     9     1     2   ar
    10     2     3   ar
    11     3     4   ar
    12     4    18    1
    13    18    19    1
    14    19    20    1
    15    20    21    1
    16    21    22    1
    17    22    23    1
    18    23    24    1
    19     4     5   ar
    20     5     6   ar
    21    14    15   ar
    22    15    16   ar
    23    16    17   ar
    24    17     9   ar
    25    16    12   ar
    26     6     1   ar
    27    24    19    1
@<TRIPOS>MOLECULE
*****
 24 27 0 0 0
SMALL
GASTEIGER

@<TRIPOS>ATOM
      1 C         139.9089  138.2012  164.4910 C.ar    1  UNL1        0.1477
      2 C         141.3002  137.6415  164.4570 C.ar    1  UNL1        0.0373
      3 C         142.3244  138.1176  165.4440 C.ar    1  UNL1        0.0002
      4 C         141.9573  139.1534  166.4651 C.ar    1  UNL1       -0.0059
      5 C         140.5661  139.7130  166.4991 C.ar    1  UNL1        0.0002
      6 C         139.5418  139.2369  165.5120 C.ar    1  UNL1        0.0373
      7 O         138.8846  137.7250  163.5039 O.3     1  UNL1       -0.4313
      8 CL        137.8338  141.3780  156.6355 Cl      1  UNL1       -0.0806
      9 C         138.3777  140.4470  157.6783 C.ar    1  UNL1        0.0774
     10 C         139.4844  139.4960  157.3308 C.ar    1  UNL1        0.1119
     11 N         140.0283  138.5650  158.3735 N.ar    1  UNL1       -0.2236
     12 C         139.4656  138.5849  159.7638 C.ar    1  UNL1        0.1721
     13 N         139.7972  137.7909  160.9923 N.ar    1  UNL1       -0.1859
     14 C         138.8955  138.2511  162.0992 C.ar    1  UNL1        0.2642
     15 S         138.0065  139.3296  161.5547 S.2     1  UNL1       -0.0267
     16 C         138.3589  139.5359  160.1113 C.ar    1  UNL1        0.0705
     17 C         137.8150  140.4669  159.0685 C.ar    1  UNL1        0.0227
     18 C         142.9816  139.6295  167.4521 C.3     1  UNL1        0.0991
     19 N         142.5634  140.4773  168.6169 N.3     1  UNL1       -0.2690
     20 C         142.7478  141.9650  168.5661 C.3     1  UNL1        0.0724
     21 C         142.3296  142.8128  169.7308 C.3     1  UNL1        0.0174
     22 C         141.7271  142.1728  170.9463 C.3     1  UNL1        0.0029
     23 C         141.5428  140.6850  170.9970 C.3     1  UNL1        0.0174
     24 C         141.9609  139.8373  169.8323 C.3     1  UNL1        0.0724
@<TRIPOS>BOND
     1     8     9    1
     2     9    10   ar
     3    10    11   ar
     4    11    12   ar
     5    12    13   ar
     6    13    14   ar
     7    14     7    1
     8     7     1    1
     9     1     2   ar
    10     2     3   ar
    11     3     4   ar
    12     4    18    1
    13    18    19    1
    14    19    20    1
    15    20    21    1
    16    21    22    1
    17    22    23    1
    18    23    24    1
    19     4     5   ar
    20     5     6   ar
    21    14    15   ar
    22    15    16   ar
    23    16    17   ar
    24    17     9   ar
    25    16    12   ar
    26     6     1   ar
    27    24    19    1
@<TRIPOS>MOLECULE
*****
 24 27 0 0 0
SMALL
GASTEIGER

@<TRIPOS>ATOM
      1 C         139.8141  144.5643  163.5352 C.ar    1  UNL1        0.1477
      2 C         138.5779  143.7199  163.6290 C.ar    1  UNL1        0.0373
      3 C         138.5310  142.5620  164.5814 C.ar    1  UNL1        0.0002
      4 C         139.7204  142.2486  165.4401 C.ar    1  UNL1       -0.0059
      5 C         140.9565  143.0931  165.3463 C.ar    1  UNL1        0.0002
      6 C         141.0034  144.2509  164.3939 C.ar    1  UNL1        0.0373
      7 O         139.8609  145.7222  162.5828 O.3     1  UNL1       -0.4313
      8 CL        143.1364  143.6874  155.7450 Cl      1  UNL1       -0.0806
      9 C         142.2258  144.3385  156.7435 C.ar    1  UNL1        0.0774
     10 C         141.1446  145.2681  156.2780 C.ar    1  UNL1        0.1119
     11 N         140.2341  145.9192  157.2765 N.ar    1  UNL1       -0.2236
     12 C         140.4047  145.6408  158.7405 C.ar    1  UNL1        0.1721
     13 N         139.6644  146.1326  159.9487 N.ar    1  UNL1       -0.1859
     14 C         140.2881  145.5070  161.1610 C.ar    1  UNL1        0.2642
     15 S         141.4139  144.6285  160.7020 S.2     1  UNL1       -0.0267
     16 C         141.4860  144.7112  159.2060 C.ar    1  UNL1        0.0705
     17 C         142.3965  144.0600  158.2075 C.ar    1  UNL1        0.0227
     18 C         139.6736  141.0908  166.3926 C.3     1  UNL1        0.0991
     19 N         140.8793  140.2162  166.5699 N.3     1  UNL1       -0.2690
     20 C         141.5812  140.1659  167.8945 C.3     1  UNL1        0.0724
     21 C         142.7869  139.2914  168.0718 C.3     1  UNL1        0.0174
     22 C         143.2908  138.4671  166.9243 C.3     1  UNL1        0.0029
     23 C         142.5889  138.5174  165.5996 C.3     1  UNL1        0.0174
     24 C         141.3832  139.3919  165.4224 C.3     1  UNL1        0.0724
@<TRIPOS>BOND
     1     8     9    1
     2     9    10   ar
     3    10    11   ar
     4    11    12   ar
     5    12    13   ar
     6    13    14   ar
     7    14     7    1
     8     7     1    1
     9     1     2   ar
    10     2     3   ar
    11     3     4   ar
    12     4    18    1
    13    18    19    1
    14    19    20    1
    15    20    21    1
    16    21    22    1
    17    22    23    1
    18    23    24    1
    19     4     5   ar
    20     5     6   ar
    21    14    15   ar
    22    15    16   ar
    23    16    17   ar
    24    17     9   ar
    25    16    12   ar
    26     6     1   ar
    27    24    19    1
