@<TRIPOS>MOLECULE
*****
 38 41 0 0 0
SMALL
GASTEIGER

@<TRIPOS>ATOM
      1 C         142.6233  137.6506  157.6378 C.ar    1  UNL1        0.2245
      2 N         141.1247  137.6905  157.5875 N.ar    1  UNL1       -0.1912
      3 C         140.3617  138.4987  158.5948 C.ar    1  UNL1        0.2037
      4 N         141.0974  139.2670  159.6524 N.ar    1  UNL1       -0.1912
      5 C         142.5960  139.2272  159.7027 C.ar    1  UNL1        0.2240
      6 N         143.3590  138.4190  158.6954 N.ar    1  UNL1       -0.1806
      7 N         143.3316  139.9955  160.7603 N.pl3   1  UNL1       -0.2779
      8 C         143.7860  141.3989  160.4884 C.3     1  UNL1        0.0961
      9 C         144.5216  142.1673  161.5460 C.3     1  UNL1        0.0511
     10 C         144.8029  141.5322  162.8755 C.3     1  UNL1        0.1191
     11 C         144.3486  140.1287  163.1474 C.3     1  UNL1        0.0511
     12 C         143.6129  139.3604  162.0897 C.3     1  UNL1        0.0961
     13 O         145.5385  142.3005  163.9331 O.3     1  UNL1       -0.3514
     14 C         144.7743  143.0514  164.9829 C.3     1  UNL1        0.1685
     15 C         143.3225  143.3651  164.7732 C.ar    1  UNL1        0.0073
     16 C         142.2699  142.4781  165.3693 C.ar    1  UNL1       -0.0019
     17 C         140.8181  142.7918  165.1597 C.ar    1  UNL1        0.0036
     18 C         140.4190  143.9923  164.3540 C.ar    1  UNL1        0.0714
     19 C         141.4716  144.8793  163.7579 C.ar    1  UNL1        0.0036
     20 C         142.9233  144.5657  163.9675 C.ar    1  UNL1       -0.0019
     21 C         138.9671  144.3060  164.1443 C.3     1  UNL1        0.4186
     22 F         137.5154  144.6197  163.9347 F       1  UNL1       -0.1659
     23 F         138.9873  145.2029  165.3464 F       1  UNL1       -0.1659
     24 F         138.9469  143.4092  162.9422 F       1  UNL1       -0.1659
     25 N         143.3863  136.8424  156.6305 N.pl3   1  UNL1       -0.2826
     26 H         144.2333  137.1852  156.2639 H       1  UNL1        0.1551
     27 C         142.6340  132.9470  156.5297 C.ar    1  UNL1        0.0474
     28 C         141.8038  132.8508  155.2842 C.ar    1  UNL1        0.0144
     29 C         141.5011  134.0851  154.4873 C.ar    1  UNL1        0.0025
     30 C         142.0286  135.4156  154.9361 C.ar    1  UNL1        0.0144
     31 C         142.8588  135.5118  156.1817 C.ar    1  UNL1        0.0476
     32 C         143.1615  134.2776  156.9785 C.ar    1  UNL1        0.0051
     33 C         143.9917  134.3739  158.2241 C.3     1  UNL1        0.0336
     34 C         144.5508  129.7727  157.9439 C.3     1  UNL1        0.0949
     35 C         144.2481  131.0070  157.1471 C.2     1  UNL1        0.2266
     36 O         145.2568  131.5356  156.1707 O.2     1  UNL1       -0.2748
     37 N         142.9367  131.7127  157.3266 N.am    1  UNL1       -0.2841
     38 H         142.2747  131.3658  157.9673 H       1  UNL1        0.1548
@<TRIPOS>BOND
     1    34    35    1
     2    35    36    2
     3    35    37   am
     4    37    27    1
     5    27    28   ar
     6    28    29   ar
     7    29    30   ar
     8    30    31   ar
     9    31    25    1
    10    25     1    1
    11     1     2   ar
    12     2     3   ar
    13     3     4   ar
    14     4     5   ar
    15     5     7    1
    16     7     8    1
    17     8     9    1
    18     9    10    1
    19    10    13    1
    20    13    14    1
    21    14    15    1
    22    15    16   ar
    23    16    17   ar
    24    17    18   ar
    25    18    21    1
    26    21    22    1
    27    21    23    1
    28    21    24    1
    29    18    19   ar
    30    19    20   ar
    31    10    11    1
    32    11    12    1
    33     5     6   ar
    34    31    32   ar
    35    32    33    1
    36    32    27   ar
    37     6     1   ar
    38    12     7    1
    39    20    15   ar
    40    37    38    1
    41    25    26    1
@<TRIPOS>MOLECULE
*****
 38 41 0 0 0
SMALL
GASTEIGER

@<TRIPOS>ATOM
      1 C         142.8201  137.7372  157.1630 C.ar    1  UNL1        0.2245
      2 N         142.4537  138.9675  156.3871 N.ar    1  UNL1       -0.1912
      3 C         141.5540  140.0000  156.9991 C.ar    1  UNL1        0.2037
      4 N         141.0207  139.8022  158.3870 N.ar    1  UNL1       -0.1912
      5 C         141.3871  138.5719  159.1631 C.ar    1  UNL1        0.2240
      6 N         142.2868  137.5394  158.5511 N.ar    1  UNL1       -0.1806
      7 N         140.8538  138.3742  160.5510 N.pl3   1  UNL1       -0.2779
      8 C         139.3971  138.5942  160.8332 C.3     1  UNL1        0.0961
      9 C         138.8638  138.3964  162.2212 C.3     1  UNL1        0.0511
     10 C         139.7873  137.9786  163.3270 C.3     1  UNL1        0.1191
     11 C         141.2439  137.7585  163.0448 C.3     1  UNL1        0.0511
     12 C         141.7772  137.9563  161.6568 C.3     1  UNL1        0.0961
     13 O         139.2540  137.7808  164.7149 O.3     1  UNL1       -0.3514
     14 C         138.4263  138.8525  165.3602 C.3     1  UNL1        0.1685
     15 C         139.0696  139.8410  166.2871 C.ar    1  UNL1        0.0073
     16 C         139.6465  141.1141  165.7427 C.ar    1  UNL1       -0.0019
     17 C         140.2898  142.1026  166.6696 C.ar    1  UNL1        0.0036
     18 C         140.3561  141.8179  168.1408 C.ar    1  UNL1        0.0714
     19 C         139.7791  140.5448  168.6852 C.ar    1  UNL1        0.0036
     20 C         139.1359  139.5564  167.7583 C.ar    1  UNL1       -0.0019
     21 C         140.9994  142.8064  169.0678 C.3     1  UNL1        0.4186
     22 F         141.6426  143.7949  169.9946 F       1  UNL1       -0.1659
     23 F         140.0479  143.8664  168.5976 F       1  UNL1       -0.1659
     24 F         141.9509  141.7464  169.5379 F       1  UNL1       -0.1659
     25 N         143.7197  136.7047  156.5510 N.pl3   1  UNL1       -0.2826
     26 H         144.6853  136.8790  156.4699 H       1  UNL1        0.1551
     27 C         142.6957  132.8728  156.4164 C.ar    1  UNL1        0.0474
     28 C         142.0054  132.8105  155.0863 C.ar    1  UNL1        0.0144
     29 C         141.8864  134.0462  154.2443 C.ar    1  UNL1        0.0025
     30 C         142.4579  135.3443  154.7326 C.ar    1  UNL1        0.0144
     31 C         143.1482  135.4066  156.0627 C.ar    1  UNL1        0.0476
     32 C         143.2672  134.1709  156.9047 C.ar    1  UNL1        0.0051
     33 C         143.9576  134.2333  158.2349 C.3     1  UNL1        0.0336
     34 C         144.1248  129.5026  157.9490 C.3     1  UNL1        0.0949
     35 C         144.0059  130.7383  157.1071 C.2     1  UNL1        0.2266
     36 O         145.0783  131.0751  156.1138 O.2     1  UNL1       -0.2748
     37 N         142.8147  131.6371  157.2584 N.am    1  UNL1       -0.2841
     38 H         142.1108  131.4161  157.9103 H       1  UNL1        0.1548
@<TRIPOS>BOND
     1    34    35    1
     2    35    36    2
     3    35    37   am
     4    37    27    1
     5    27    28   ar
     6    28    29   ar
     7    29    30   ar
     8    30    31   ar
     9    31    25    1
    10    25     1    1
    11     1     2   ar
    12     2     3   ar
    13     3     4   ar
    14     4     5   ar
    15     5     7    1
    16     7     8    1
    17     8     9    1
    18     9    10    1
    19    10    13    1
    20    13    14    1
    21    14    15    1
    22    15    16   ar
    23    16    17   ar
    24    17    18   ar
    25    18    21    1
    26    21    22    1
    27    21    23    1
    28    21    24    1
    29    18    19   ar
    30    19    20   ar
    31    10    11    1
    32    11    12    1
    33     5     6   ar
    34    31    32   ar
    35    32    33    1
    36    32    27   ar
    37     6     1   ar
    38    12     7    1
    39    20    15   ar
    40    37    38    1
    41    25    26    1
@<TRIPOS>MOLECULE
*****
 38 41 0 0 0
SMALL
GASTEIGER

@<TRIPOS>ATOM
      1 C         143.4740  140.0942  158.4116 C.ar    1  UNL1        0.2245
      2 N         143.5616  139.0718  157.3175 N.ar    1  UNL1       -0.1912
      3 C         142.8538  137.7571  157.4612 C.ar    1  UNL1        0.2037
      4 N         142.0584  137.4649  158.6989 N.ar    1  UNL1       -0.1912
      5 C         141.9708  138.4873  159.7930 C.ar    1  UNL1        0.2240
      6 N         142.6786  139.8020  159.6494 N.ar    1  UNL1       -0.1806
      7 N         141.1755  138.1950  161.0307 N.pl3   1  UNL1       -0.2779
      8 C         139.6847  138.3606  161.0208 C.3     1  UNL1        0.0961
      9 C         138.8894  138.0683  162.2585 C.3     1  UNL1        0.0511
     10 C         139.5848  137.6105  163.5062 C.3     1  UNL1        0.1191
     11 C         141.0756  137.4449  163.5162 C.3     1  UNL1        0.0511
     12 C         141.8710  137.7372  162.2784 C.3     1  UNL1        0.0961
     13 O         138.7895  137.3182  164.7439 O.3     1  UNL1       -0.3514
     14 C         138.4615  138.4238  165.7032 C.3     1  UNL1        0.1685
     15 C         138.9823  139.8089  165.4576 C.ar    1  UNL1        0.0073
     16 C         138.1442  140.8038  164.7108 C.ar    1  UNL1       -0.0019
     17 C         138.6650  142.1889  164.4652 C.ar    1  UNL1        0.0036
     18 C         140.0238  142.5791  164.9665 C.ar    1  UNL1        0.0714
     19 C         140.8618  141.5842  165.7134 C.ar    1  UNL1        0.0036
     20 C         140.3411  140.1991  165.9590 C.ar    1  UNL1       -0.0019
     21 C         140.5446  143.9642  164.7209 C.3     1  UNL1        0.4186
     22 F         141.0653  145.3493  164.4754 F       1  UNL1       -0.1659
     23 F         139.1884  144.5280  165.0255 F       1  UNL1       -0.1659
     24 F         141.9008  143.4004  164.4164 F       1  UNL1       -0.1659
     25 N         144.1818  141.4089  158.2679 N.pl3   1  UNL1       -0.2826
     26 H         145.1598  141.4552  158.3704 H       1  UNL1        0.1551
     27 C         142.1128  144.7550  158.7908 C.ar    1  UNL1        0.0474
     28 C         141.8345  145.1414  157.3685 C.ar    1  UNL1        0.0144
     29 C         142.3386  144.2837  156.2459 C.ar    1  UNL1        0.0025
     30 C         143.1210  143.0395  156.5457 C.ar    1  UNL1        0.0144
     31 C         143.3993  142.6531  157.9680 C.ar    1  UNL1        0.0476
     32 C         142.8952  143.5108  159.0906 C.ar    1  UNL1        0.0051
     33 C         143.1736  143.1244  160.5131 C.3     1  UNL1        0.0336
     34 C         139.7592  146.1993  161.6412 C.3     1  UNL1        0.0949
     35 C         140.2633  145.3416  160.5186 C.2     1  UNL1        0.2266
     36 O         139.4219  144.2127  160.0011 O.2     1  UNL1       -0.2748
     37 N         141.6087  145.6127  159.9134 N.am    1  UNL1       -0.2841
     38 H         142.1609  146.3536  160.2531 H       1  UNL1        0.1548
@<TRIPOS>BOND
     1    34    35    1
     2    35    36    2
     3    35    37   am
     4    37    27    1
     5    27    28   ar
     6    28    29   ar
     7    29    30   ar
     8    30    31   ar
     9    31    25    1
    10    25     1    1
    11     1     2   ar
    12     2     3   ar
    13     3     4   ar
    14     4     5   ar
    15     5     7    1
    16     7     8    1
    17     8     9    1
    18     9    10    1
    19    10    13    1
    20    13    14    1
    21    14    15    1
    22    15    16   ar
    23    16    17   ar
    24    17    18   ar
    25    18    21    1
    26    21    22    1
    27    21    23    1
    28    21    24    1
    29    18    19   ar
    30    19    20   ar
    31    10    11    1
    32    11    12    1
    33     5     6   ar
    34    31    32   ar
    35    32    33    1
    36    32    27   ar
    37     6     1   ar
    38    12     7    1
    39    20    15   ar
    40    37    38    1
    41    25    26    1
@<TRIPOS>MOLECULE
*****
 38 41 0 0 0
SMALL
GASTEIGER

@<TRIPOS>ATOM
      1 C         142.5639  137.3033  157.6734 C.ar    1  UNL1        0.2245
      2 N         141.3463  138.0102  157.1562 N.ar    1  UNL1       -0.1912
      3 C         140.5275  138.8652  158.0773 C.ar    1  UNL1        0.2037
      4 N         140.9262  139.0133  159.5157 N.ar    1  UNL1       -0.1912
      5 C         142.1439  138.3063  160.0330 C.ar    1  UNL1        0.2240
      6 N         142.9628  137.4513  159.1119 N.ar    1  UNL1       -0.1806
      7 N         142.5427  138.4544  161.4714 N.pl3   1  UNL1       -0.2779
      8 C         141.7382  137.7843  162.5455 C.3     1  UNL1        0.0961
      9 C         142.1370  137.9323  163.9839 C.3     1  UNL1        0.0511
     10 C         143.3403  138.7505  164.3482 C.3     1  UNL1        0.1191
     11 C         144.1448  139.4206  163.2741 C.3     1  UNL1        0.0511
     12 C         143.7459  139.2726  161.8357 C.3     1  UNL1        0.0961
     13 O         143.7391  138.8986  165.7866 O.3     1  UNL1       -0.3514
     14 C         142.7709  139.4728  166.7781 C.3     1  UNL1        0.1685
     15 C         141.7565  140.4854  166.3357 C.ar    1  UNL1        0.0073
     16 C         142.1975  141.8595  165.9266 C.ar    1  UNL1       -0.0019
     17 C         141.1831  142.8721  165.4842 C.ar    1  UNL1        0.0036
     18 C         139.7278  142.5106  165.4509 C.ar    1  UNL1        0.0714
     19 C         139.2867  141.1365  165.8600 C.ar    1  UNL1        0.0036
     20 C         140.3011  140.1239  166.3024 C.ar    1  UNL1       -0.0019
     21 C         138.7133  143.5232  165.0085 C.3     1  UNL1        0.4186
     22 F         137.6990  144.5358  164.5662 F       1  UNL1       -0.1659
     23 F         139.1874  144.4644  166.0759 F       1  UNL1       -0.1659
     24 F         138.2392  142.5820  163.9411 F       1  UNL1       -0.1659
     25 N         143.3828  136.4483  156.7523 N.pl3   1  UNL1       -0.2826
     26 H         144.2644  136.7604  156.4447 H       1  UNL1        0.1551
     27 C         142.6727  132.5460  156.6183 C.ar    1  UNL1        0.0474
     28 C         141.8095  132.4568  155.3949 C.ar    1  UNL1        0.0144
     29 C         141.4708  133.6980  154.6238 C.ar    1  UNL1        0.0025
     30 C         141.9952  135.0285  155.0763 C.ar    1  UNL1        0.0144
     31 C         142.8583  135.1177  156.2998 C.ar    1  UNL1        0.0476
     32 C         143.1971  133.8765  157.0708 C.ar    1  UNL1        0.0051
     33 C         144.0603  133.9657  158.2944 C.3     1  UNL1        0.0336
     34 C         144.5907  129.2888  157.8273 C.3     1  UNL1        0.0949
     35 C         144.2519  130.5300  157.0563 C.2     1  UNL1        0.2266
     36 O         145.1537  130.9966  155.9521 O.2     1  UNL1       -0.2748
     37 N         143.0114  131.3047  157.3894 N.am    1  UNL1       -0.2841
     38 H         142.4196  130.9985  158.1141 H       1  UNL1        0.1548
@<TRIPOS>BOND
     1    34    35    1
     2    35    36    2
     3    35    37   am
     4    37    27    1
     5    27    28   ar
     6    28    29   ar
     7    29    30   ar
     8    30    31   ar
     9    31    25    1
    10    25     1    1
    11     1     2   ar
    12     2     3   ar
    13     3     4   ar
    14     4     5   ar
    15     5     7    1
    16     7     8    1
    17     8     9    1
    18     9    10    1
    19    10    13    1
    20    13    14    1
    21    14    15    1
    22    15    16   ar
    23    16    17   ar
    24    17    18   ar
    25    18    21    1
    26    21    22    1
    27    21    23    1
    28    21    24    1
    29    18    19   ar
    30    19    20   ar
    31    10    11    1
    32    11    12    1
    33     5     6   ar
    34    31    32   ar
    35    32    33    1
    36    32    27   ar
    37     6     1   ar
    38    12     7    1
    39    20    15   ar
    40    37    38    1
    41    25    26    1
@<TRIPOS>MOLECULE
*****
 38 41 0 0 0
SMALL
GASTEIGER

@<TRIPOS>ATOM
      1 C         142.7655  137.7809  157.0903 C.ar    1  UNL1        0.2245
      2 N         142.3280  138.9600  156.2729 N.ar    1  UNL1       -0.1912
      3 C         141.3516  139.9463  156.8421 C.ar    1  UNL1        0.2037
      4 N         140.8129  139.7535  158.2286 N.ar    1  UNL1       -0.1912
      5 C         141.2505  138.5743  159.0461 C.ar    1  UNL1        0.2240
      6 N         142.2268  137.5880  158.4769 N.ar    1  UNL1       -0.1806
      7 N         140.7117  138.3814  160.4326 N.pl3   1  UNL1       -0.2779
      8 C         139.2323  138.2702  160.6536 C.3     1  UNL1        0.0961
      9 C         138.6935  138.0773  162.0402 C.3     1  UNL1        0.0511
     10 C         139.6342  137.9957  163.2057 C.3     1  UNL1        0.1191
     11 C         141.1137  138.1070  162.9847 C.3     1  UNL1        0.0511
     12 C         141.6524  138.2998  161.5981 C.3     1  UNL1        0.0961
     13 O         139.0955  137.8029  164.5923 O.3     1  UNL1       -0.3514
     14 C         138.4632  138.9533  165.3180 C.3     1  UNL1        0.1685
     15 C         138.6379  140.3516  164.8038 C.ar    1  UNL1        0.0073
     16 C         139.8490  141.1474  165.1914 C.ar    1  UNL1       -0.0019
     17 C         140.0238  142.5456  164.6772 C.ar    1  UNL1        0.0036
     18 C         138.9876  143.1480  163.7755 C.ar    1  UNL1        0.0714
     19 C         137.7766  142.3523  163.3878 C.ar    1  UNL1        0.0036
     20 C         137.6017  140.9541  163.9020 C.ar    1  UNL1       -0.0019
     21 C         139.1624  144.5463  163.2613 C.3     1  UNL1        0.4186
     22 F         139.3371  145.9446  162.7471 F       1  UNL1       -0.1659
     23 F         138.8916  145.0852  164.6347 F       1  UNL1       -0.1659
     24 F         139.4331  144.0075  161.8879 F       1  UNL1       -0.1659
     25 N         143.7419  136.7946  156.5211 N.pl3   1  UNL1       -0.2826
     26 H         144.7013  137.0132  156.4906 H       1  UNL1        0.1551
     27 C         142.8138  132.9396  156.3529 C.ar    1  UNL1        0.0474
     28 C         142.2855  132.8361  154.9529 C.ar    1  UNL1        0.0144
     29 C         142.2426  134.0520  154.0756 C.ar    1  UNL1        0.0025
     30 C         142.7280  135.3715  154.5983 C.ar    1  UNL1        0.0144
     31 C         143.2564  135.4750  155.9983 C.ar    1  UNL1        0.0476
     32 C         143.2993  134.2591  156.8756 C.ar    1  UNL1        0.0051
     33 C         143.8277  134.3627  158.2757 C.3     1  UNL1        0.0336
     34 C         144.0867  129.5920  158.0625 C.3     1  UNL1        0.0949
     35 C         144.0438  130.8079  157.1852 C.2     1  UNL1        0.2266
     36 O         145.1881  131.1080  156.2629 O.2     1  UNL1       -0.2748
     37 N         142.8567  131.7237  157.2302 N.am    1  UNL1       -0.2841
     38 H         142.1057  131.5267  157.8355 H       1  UNL1        0.1548
@<TRIPOS>BOND
     1    34    35    1
     2    35    36    2
     3    35    37   am
     4    37    27    1
     5    27    28   ar
     6    28    29   ar
     7    29    30   ar
     8    30    31   ar
     9    31    25    1
    10    25     1    1
    11     1     2   ar
    12     2     3   ar
    13     3     4   ar
    14     4     5   ar
    15     5     7    1
    16     7     8    1
    17     8     9    1
    18     9    10    1
    19    10    13    1
    20    13    14    1
    21    14    15    1
    22    15    16   ar
    23    16    17   ar
    24    17    18   ar
    25    18    21    1
    26    21    22    1
    27    21    23    1
    28    21    24    1
    29    18    19   ar
    30    19    20   ar
    31    10    11    1
    32    11    12    1
    33     5     6   ar
    34    31    32   ar
    35    32    33    1
    36    32    27   ar
    37     6     1   ar
    38    12     7    1
    39    20    15   ar
    40    37    38    1
    41    25    26    1
@<TRIPOS>MOLECULE
*****
 38 41 0 0 0
SMALL
GASTEIGER

@<TRIPOS>ATOM
      1 C         135.8187  140.8779  156.3192 C.ar    1  UNL1        0.2245
      2 N         135.8229  142.0678  155.4060 N.ar    1  UNL1       -0.1912
      3 C         136.8347  143.1582  155.5995 C.ar    1  UNL1        0.2037
      4 N         137.8423  143.0586  156.7062 N.ar    1  UNL1       -0.1912
      5 C         137.8382  141.8686  157.6195 C.ar    1  UNL1        0.2240
      6 N         136.8264  140.7783  157.4260 N.ar    1  UNL1       -0.1806
      7 N         138.8457  141.7690  158.7261 N.pl3   1  UNL1       -0.2779
      8 C         139.1985  142.9848  159.5309 C.3     1  UNL1        0.0961
      9 C         140.2061  142.8852  160.6376 C.3     1  UNL1        0.0511
     10 C         140.8610  141.5698  160.9396 C.3     1  UNL1        0.1191
     11 C         140.5082  140.3541  160.1348 C.3     1  UNL1        0.0511
     12 C         139.5005  140.4538  159.0281 C.3     1  UNL1        0.0961
     13 O         141.8685  141.4703  162.0463 O.3     1  UNL1       -0.3514
     14 C         141.4609  141.7615  163.4601 C.3     1  UNL1        0.1685
     15 C         140.5867  140.7949  164.2029 C.ar    1  UNL1        0.0073
     16 C         139.3163  141.2714  164.8424 C.ar    1  UNL1       -0.0019
     17 C         138.4422  140.3049  165.5851 C.ar    1  UNL1        0.0036
     18 C         138.8384  138.8620  165.6884 C.ar    1  UNL1        0.0714
     19 C         140.1089  138.3855  165.0489 C.ar    1  UNL1        0.0036
     20 C         140.9830  139.3520  164.3062 C.ar    1  UNL1       -0.0019
     21 C         137.9643  137.8954  166.4312 C.3     1  UNL1        0.4186
     22 F         137.0902  136.9288  167.1739 F       1  UNL1       -0.1659
     23 F         138.5577  136.7596  165.6515 F       1  UNL1       -0.1659
     24 F         137.3709  139.0311  167.2108 F       1  UNL1       -0.1659
     25 N         134.8069  139.7876  156.1258 N.pl3   1  UNL1       -0.2826
     26 H         135.1040  138.8682  155.9368 H       1  UNL1        0.1551
     27 C         131.0416  139.7632  157.3795 C.ar    1  UNL1        0.0474
     28 C         130.4135  140.7190  156.4090 C.ar    1  UNL1        0.0144
     29 C         131.2499  141.3643  155.3440 C.ar    1  UNL1        0.0025
     30 C         132.7143  141.0539  155.2496 C.ar    1  UNL1        0.0144
     31 C         133.3424  140.0981  156.2201 C.ar    1  UNL1        0.0476
     32 C         132.5060  139.4527  157.2851 C.ar    1  UNL1        0.0051
     33 C         133.1342  138.4969  158.2556 C.3     1  UNL1        0.0336
     34 C         128.5732  137.2407  159.1943 C.3     1  UNL1        0.0949
     35 C         129.4095  137.8860  158.1294 C.2     1  UNL1        0.2266
     36 O         129.4501  137.2994  156.7494 O.2     1  UNL1       -0.2748
     37 N         130.2052  139.1179  158.4444 N.am    1  UNL1       -0.2841
     38 H         130.1786  139.5028  159.3501 H       1  UNL1        0.1548
@<TRIPOS>BOND
     1    34    35    1
     2    35    36    2
     3    35    37   am
     4    37    27    1
     5    27    28   ar
     6    28    29   ar
     7    29    30   ar
     8    30    31   ar
     9    31    25    1
    10    25     1    1
    11     1     2   ar
    12     2     3   ar
    13     3     4   ar
    14     4     5   ar
    15     5     7    1
    16     7     8    1
    17     8     9    1
    18     9    10    1
    19    10    13    1
    20    13    14    1
    21    14    15    1
    22    15    16   ar
    23    16    17   ar
    24    17    18   ar
    25    18    21    1
    26    21    22    1
    27    21    23    1
    28    21    24    1
    29    18    19   ar
    30    19    20   ar
    31    10    11    1
    32    11    12    1
    33     5     6   ar
    34    31    32   ar
    35    32    33    1
    36    32    27   ar
    37     6     1   ar
    38    12     7    1
    39    20    15   ar
    40    37    38    1
    41    25    26    1
@<TRIPOS>MOLECULE
*****
 38 41 0 0 0
SMALL
GASTEIGER

@<TRIPOS>ATOM
      1 C         142.5998  140.5564  157.2800 C.ar    1  UNL1        0.2245
      2 N         143.2164  139.4857  156.4295 N.ar    1  UNL1       -0.1912
      3 C         143.0808  138.0445  156.8228 C.ar    1  UNL1        0.2037
      4 N         142.3285  137.6740  158.0665 N.ar    1  UNL1       -0.1912
      5 C         141.7118  138.7447  158.9170 C.ar    1  UNL1        0.2240
      6 N         141.8475  140.1859  158.5238 N.ar    1  UNL1       -0.1806
      7 N         140.9596  138.3743  160.1607 N.pl3   1  UNL1       -0.2779
      8 C         139.4603  138.4205  160.1722 C.3     1  UNL1        0.0961
      9 C         138.7081  138.0500  161.4159 C.3     1  UNL1        0.0511
     10 C         139.4550  137.6333  162.6481 C.3     1  UNL1        0.1191
     11 C         140.9543  137.5870  162.6366 C.3     1  UNL1        0.0511
     12 C         141.7065  137.9575  161.3929 C.3     1  UNL1        0.0961
     13 O         138.7028  137.2628  163.8918 O.3     1  UNL1       -0.3514
     14 C         138.9805  137.9819  165.1786 C.3     1  UNL1        0.1685
     15 C         138.9637  139.4814  165.2185 C.ar    1  UNL1        0.0073
     16 C         139.9083  140.2181  166.1213 C.ar    1  UNL1       -0.0019
     17 C         139.8916  141.7175  166.1612 C.ar    1  UNL1        0.0036
     18 C         138.9304  142.4800  165.2984 C.ar    1  UNL1        0.0714
     19 C         137.9858  141.7432  164.3956 C.ar    1  UNL1        0.0036
     20 C         138.0025  140.2439  164.3557 C.ar    1  UNL1       -0.0019
     21 C         138.9137  143.9795  165.3383 C.3     1  UNL1        0.4186
     22 F         138.8970  145.4788  165.3782 F       1  UNL1       -0.1659
     23 F         140.2770  143.9780  165.9637 F       1  UNL1       -0.1659
     24 F         137.5503  143.9810  164.7129 F       1  UNL1       -0.1659
     25 N         142.7354  141.9975  156.8868 N.pl3   1  UNL1       -0.2826
     26 H         143.3625  142.2562  156.1733 H       1  UNL1        0.1551
     27 C         141.5529  144.6537  159.5880 C.ar    1  UNL1        0.0474
     28 C         140.2758  145.1387  158.9684 C.ar    1  UNL1        0.0144
     29 C         139.8186  144.5767  157.6550 C.ar    1  UNL1        0.0025
     30 C         140.6384  143.5296  156.9611 C.ar    1  UNL1        0.0144
     31 C         141.9155  143.0446  157.5807 C.ar    1  UNL1        0.0476
     32 C         142.3727  143.6067  158.8941 C.ar    1  UNL1        0.0051
     33 C         143.6498  143.1216  159.5136 C.3     1  UNL1        0.0336
     34 C         141.8953  145.2492  163.4967 C.3     1  UNL1        0.0949
     35 C         141.4381  144.6872  162.1833 C.2     1  UNL1        0.2266
     36 O         140.4087  143.5964  162.1518 O.2     1  UNL1       -0.2748
     37 N         142.0101  145.2158  160.9014 N.am    1  UNL1       -0.2841
     38 H         142.6856  145.9316  160.9220 H       1  UNL1        0.1548
@<TRIPOS>BOND
     1    34    35    1
     2    35    36    2
     3    35    37   am
     4    37    27    1
     5    27    28   ar
     6    28    29   ar
     7    29    30   ar
     8    30    31   ar
     9    31    25    1
    10    25     1    1
    11     1     2   ar
    12     2     3   ar
    13     3     4   ar
    14     4     5   ar
    15     5     7    1
    16     7     8    1
    17     8     9    1
    18     9    10    1
    19    10    13    1
    20    13    14    1
    21    14    15    1
    22    15    16   ar
    23    16    17   ar
    24    17    18   ar
    25    18    21    1
    26    21    22    1
    27    21    23    1
    28    21    24    1
    29    18    19   ar
    30    19    20   ar
    31    10    11    1
    32    11    12    1
    33     5     6   ar
    34    31    32   ar
    35    32    33    1
    36    32    27   ar
    37     6     1   ar
    38    12     7    1
    39    20    15   ar
    40    37    38    1
    41    25    26    1
@<TRIPOS>MOLECULE
*****
 38 41 0 0 0
SMALL
GASTEIGER

@<TRIPOS>ATOM
      1 C         136.3676  140.7906  156.7380 C.ar    1  UNL1        0.2245
      2 N         136.7490  142.1311  156.1836 N.ar    1  UNL1       -0.1912
      3 C         137.7281  142.9964  156.9202 C.ar    1  UNL1        0.2037
      4 N         138.3257  142.5212  158.2113 N.ar    1  UNL1       -0.1912
      5 C         137.9443  141.1807  158.7658 C.ar    1  UNL1        0.2240
      6 N         136.9652  140.3153  158.0292 N.ar    1  UNL1       -0.1806
      7 N         138.5419  140.7055  160.0570 N.pl3   1  UNL1       -0.2779
      8 C         137.7281  139.8647  160.9955 C.3     1  UNL1        0.0961
      9 C         138.3258  139.3895  162.2866 C.3     1  UNL1        0.0511
     10 C         139.7372  139.7552  162.6392 C.3     1  UNL1        0.1191
     11 C         140.5509  140.5960  161.7007 C.3     1  UNL1        0.0511
     12 C         139.9532  141.0711  160.4095 C.3     1  UNL1        0.0961
     13 O         140.3348  139.2800  163.9304 O.3     1  UNL1       -0.3514
     14 C         141.3321  140.1349  164.6547 C.3     1  UNL1        0.1685
     15 C         140.9823  140.7307  165.9862 C.ar    1  UNL1        0.0073
     16 C         140.1041  139.9748  166.9387 C.ar    1  UNL1       -0.0019
     17 C         139.7543  140.5706  168.2701 C.ar    1  UNL1        0.0036
     18 C         140.2827  141.9223  168.6490 C.ar    1  UNL1        0.0714
     19 C         141.1609  142.6782  167.6964 C.ar    1  UNL1        0.0036
     20 C         141.5107  142.0824  166.3650 C.ar    1  UNL1       -0.0019
     21 C         139.9329  142.5181  169.9804 C.3     1  UNL1        0.4186
     22 F         139.5832  143.1140  171.3118 F       1  UNL1       -0.1659
     23 F         140.9633  143.5881  169.7722 F       1  UNL1       -0.1659
     24 F         138.9025  141.4481  170.1886 F       1  UNL1       -0.1659
     25 N         135.3885  139.9252  156.0014 N.pl3   1  UNL1       -0.2826
     26 H         135.7009  139.1183  155.5317 H       1  UNL1        0.1551
     27 C         131.5549  140.1129  157.0105 C.ar    1  UNL1        0.0474
     28 C         131.0235  141.0174  155.9384 C.ar    1  UNL1        0.0144
     29 C         131.9471  141.5578  154.8873 C.ar    1  UNL1        0.0025
     30 C         133.4021  141.1938  154.9083 C.ar    1  UNL1        0.0144
     31 C         133.9335  140.2893  155.9804 C.ar    1  UNL1        0.0476
     32 C         133.0099  139.7489  157.0315 C.ar    1  UNL1        0.0051
     33 C         133.5413  138.8443  158.1037 C.3     1  UNL1        0.0336
     34 C         128.9353  137.7720  158.8566 C.3     1  UNL1        0.0949
     35 C         129.8589  138.3124  157.8055 C.2     1  UNL1        0.2266
     36 O         130.0101  137.5928  156.4980 O.2     1  UNL1       -0.2748
     37 N         130.6313  139.5725  158.0617 N.am    1  UNL1       -0.2841
     38 H         130.5321  140.0448  158.9198 H       1  UNL1        0.1548
@<TRIPOS>BOND
     1    34    35    1
     2    35    36    2
     3    35    37   am
     4    37    27    1
     5    27    28   ar
     6    28    29   ar
     7    29    30   ar
     8    30    31   ar
     9    31    25    1
    10    25     1    1
    11     1     2   ar
    12     2     3   ar
    13     3     4   ar
    14     4     5   ar
    15     5     7    1
    16     7     8    1
    17     8     9    1
    18     9    10    1
    19    10    13    1
    20    13    14    1
    21    14    15    1
    22    15    16   ar
    23    16    17   ar
    24    17    18   ar
    25    18    21    1
    26    21    22    1
    27    21    23    1
    28    21    24    1
    29    18    19   ar
    30    19    20   ar
    31    10    11    1
    32    11    12    1
    33     5     6   ar
    34    31    32   ar
    35    32    33    1
    36    32    27   ar
    37     6     1   ar
    38    12     7    1
    39    20    15   ar
    40    37    38    1
    41    25    26    1
@<TRIPOS>MOLECULE
*****
 38 41 0 0 0
SMALL
GASTEIGER

@<TRIPOS>ATOM
      1 C         139.0052  138.3785  162.5499 C.ar    1  UNL1        0.2245
      2 N         137.9259  139.4148  162.4441 N.ar    1  UNL1       -0.1912
      3 C         137.6723  140.1028  161.1355 C.ar    1  UNL1        0.2037
      4 N         138.4979  139.7544  159.9327 N.ar    1  UNL1       -0.1912
      5 C         139.5772  138.7180  160.0384 C.ar    1  UNL1        0.2240
      6 N         139.8308  138.0301  161.3470 N.ar    1  UNL1       -0.1806
      7 N         140.4028  138.3696  158.8355 N.pl3   1  UNL1       -0.2779
      8 C         139.7316  138.0361  157.5362 C.3     1  UNL1        0.0961
      9 C         140.5573  137.6877  156.3333 C.3     1  UNL1        0.0511
     10 C         142.0541  137.6728  156.4297 C.3     1  UNL1        0.1191
     11 C         142.7253  138.0064  157.7290 C.3     1  UNL1        0.0511
     12 C         141.8996  138.3548  158.9320 C.3     1  UNL1        0.0961
     13 O         142.8797  137.3245  155.2269 O.3     1  UNL1       -0.3514
     14 C         142.6016  136.0618  154.4664 C.3     1  UNL1        0.1685
     15 C         142.7682  134.7303  155.1368 C.ar    1  UNL1        0.0073
     16 C         143.8626  134.5288  156.1426 C.ar    1  UNL1       -0.0019
     17 C         144.0292  133.1974  156.8130 C.ar    1  UNL1        0.0036
     18 C         143.1014  132.0675  156.4777 C.ar    1  UNL1        0.0714
     19 C         142.0070  132.2690  155.4719 C.ar    1  UNL1        0.0036
     20 C         141.8404  133.6004  154.8015 C.ar    1  UNL1       -0.0019
     21 C         143.2680  130.7360  157.1482 C.3     1  UNL1        0.4186
     22 F         143.4345  129.4045  157.8186 F       1  UNL1       -0.1659
     23 F         142.1839  130.1648  156.2831 F       1  UNL1       -0.1659
     24 F         144.3521  131.3072  158.0132 F       1  UNL1       -0.1659
     25 N         139.2588  137.6906  163.8585 N.pl3   1  UNL1       -0.2826
     26 H         138.7370  136.8928  164.1045 H       1  UNL1        0.1551
     27 C         140.9774  139.7089  166.8119 C.ar    1  UNL1        0.0474
     28 C         142.4047  139.2735  166.6598 C.ar    1  UNL1        0.0144
     29 C         142.7834  138.3105  165.5740 C.ar    1  UNL1        0.0025
     30 C         141.7348  137.7828  164.6402 C.ar    1  UNL1        0.0144
     31 C         140.3075  138.2182  164.7923 C.ar    1  UNL1        0.0476
     32 C         139.9288  139.1813  165.8782 C.ar    1  UNL1        0.0051
     33 C         138.5014  139.6167  166.0302 C.3     1  UNL1        0.0336
     34 C         140.4258  143.1075  168.7855 C.3     1  UNL1        0.0949
     35 C         140.8045  142.1445  167.6997 C.2     1  UNL1        0.2266
     36 O         141.3890  142.6540  166.4156 O.2     1  UNL1       -0.2748
     37 N         140.5987  140.6720  167.8978 N.am    1  UNL1       -0.2841
     38 H         140.2151  140.3376  168.7406 H       1  UNL1        0.1548
@<TRIPOS>BOND
     1    34    35    1
     2    35    36    2
     3    35    37   am
     4    37    27    1
     5    27    28   ar
     6    28    29   ar
     7    29    30   ar
     8    30    31   ar
     9    31    25    1
    10    25     1    1
    11     1     2   ar
    12     2     3   ar
    13     3     4   ar
    14     4     5   ar
    15     5     7    1
    16     7     8    1
    17     8     9    1
    18     9    10    1
    19    10    13    1
    20    13    14    1
    21    14    15    1
    22    15    16   ar
    23    16    17   ar
    24    17    18   ar
    25    18    21    1
    26    21    22    1
    27    21    23    1
    28    21    24    1
    29    18    19   ar
    30    19    20   ar
    31    10    11    1
    32    11    12    1
    33     5     6   ar
    34    31    32   ar
    35    32    33    1
    36    32    27   ar
    37     6     1   ar
    38    12     7    1
    39    20    15   ar
    40    37    38    1
    41    25    26    1
