@<TRIPOS>MOLECULE
*****
 31 34 0 0 0
SMALL
GASTEIGER

@<TRIPOS>ATOM
      1 C         138.8683  140.1276  169.9700 C.3     1  UNL1        0.1201
      2 N         139.6742  140.2341  168.7093 N.am    1  UNL1       -0.2538
      3 C         139.0654  139.6026  167.4925 C.2     1  UNL1        0.2712
      4 O         137.7315  138.9480  167.6973 O.2     1  UNL1       -0.2705
      5 C         139.6144  139.5391  166.0980 C.3     1  UNL1        0.2551
      6 N         140.9076  140.0914  165.5759 N.2     1  UNL1       -0.2434
      7 C         141.9712  140.8437  166.3194 C.2     1  UNL1        0.0795
      8 C         142.0044  141.2295  167.7686 C.ar    1  UNL1        0.0310
      9 C         143.2583  141.9797  168.1074 C.ar    1  UNL1        0.0027
     10 C         143.4899  142.4587  169.5099 C.ar    1  UNL1        0.0001
     11 C         142.4676  142.1874  170.5735 C.ar    1  UNL1        0.0013
     12 C         141.2137  141.4372  170.2347 C.ar    1  UNL1        0.0149
     13 C         140.9821  140.9582  168.8322 C.ar    1  UNL1        0.0554
     14 C         143.1587  141.2662  165.5062 C.ar    1  UNL1        0.0174
     15 C         144.0896  140.2323  164.9451 C.ar    1  UNL1        0.0015
     16 C         145.2772  140.6548  164.1319 C.ar    1  UNL1        0.0000
     17 C         145.5338  142.1110  163.8797 C.ar    1  UNL1        0.0000
     18 C         144.6030  143.1447  164.4407 C.ar    1  UNL1        0.0000
     19 C         143.4155  142.7224  165.2540 C.ar    1  UNL1        0.0015
     20 N         138.7568  138.8294  165.0927 N.am    1  UNL1       -0.2797
     21 C         139.3610  138.3200  163.8178 C.2     1  UNL1        0.2241
     22 O         140.8230  138.5203  163.5482 O.2     1  UNL1       -0.2750
     23 H         137.7973  138.6979  165.2696 H       1  UNL1        0.1516
     24 C         138.5034  137.6103  162.8124 C.3     1  UNL1        0.0851
     25 C         137.7778  138.3940  161.7592 C.3     1  UNL1        0.0096
     26 C         138.1133  139.8387  161.5349 C.3     1  UNL1        0.0005
     27 C         139.0627  140.2271  160.4405 C.3     1  UNL1        0.0000
     28 C         139.3982  141.6718  160.2163 C.3     1  UNL1        0.0000
     29 C         138.7843  142.7281  161.0865 C.3     1  UNL1        0.0000
     30 C         137.8349  142.3398  162.1810 C.3     1  UNL1        0.0000
     31 C         137.4994  140.8951  162.4052 C.3     1  UNL1        0.0000
@<TRIPOS>BOND
     1     1     2    1
     2     2     3   am
     3     3     4    2
     4     3     5    1
     5     5    20    1
     6    20    21   am
     7    21    22    2
     8    21    24    1
     9    24    25    1
    10    25    26    1
    11    26    27    1
    12    27    28    1
    13    28    29    1
    14    29    30    1
    15    30    31    1
    16     5     6    1
    17     6     7    2
    18     7    14    1
    19    14    15   ar
    20    15    16   ar
    21    16    17   ar
    22    17    18   ar
    23    18    19   ar
    24     7     8    1
    25     8     9   ar
    26     9    10   ar
    27    10    11   ar
    28    11    12   ar
    29    12    13   ar
    30    13     2    1
    31    31    26    1
    32    19    14   ar
    33    13     8   ar
    34    20    23    1
@<TRIPOS>MOLECULE
*****
 31 34 0 0 0
SMALL
GASTEIGER

@<TRIPOS>ATOM
      1 C         137.8728  141.9089  157.2388 C.3     1  UNL1        0.1201
      2 N         138.6468  142.0958  158.5100 N.am    1  UNL1       -0.2538
      3 C         138.3696  141.0964  159.5936 C.2     1  UNL1        0.2712
      4 O         137.3551  140.0423  159.2628 O.2     1  UNL1       -0.2705
      5 C         138.9729  141.0117  160.9644 C.3     1  UNL1        0.2551
      6 N         140.0023  141.9055  161.5901 N.2     1  UNL1       -0.2434
      7 C         140.6827  143.1048  160.9994 C.2     1  UNL1        0.0795
      8 C         140.5017  143.7065  159.6373 C.ar    1  UNL1        0.0310
      9 C         141.3801  144.9075  159.4476 C.ar    1  UNL1        0.0027
     10 C         141.3523  145.6595  158.1500 C.ar    1  UNL1        0.0001
     11 C         140.4463  145.2104  157.0422 C.ar    1  UNL1        0.0013
     12 C         139.5680  144.0094  157.2318 C.ar    1  UNL1        0.0149
     13 C         139.5957  143.2574  158.5294 C.ar    1  UNL1        0.0554
     14 C         141.6753  143.7935  161.8884 C.ar    1  UNL1        0.0174
     15 C         143.1363  143.4750  161.7694 C.ar    1  UNL1        0.0015
     16 C         144.1289  144.1637  162.6585 C.ar    1  UNL1        0.0000
     17 C         143.6605  145.1710  163.6665 C.ar    1  UNL1        0.0000
     18 C         142.1997  145.4895  163.7855 C.ar    1  UNL1        0.0000
     19 C         141.2070  144.8008  162.8965 C.ar    1  UNL1        0.0015
     20 N         138.4818  139.8841  161.8231 N.am    1  UNL1       -0.2797
     21 C         139.3671  138.7026  162.0880 C.2     1  UNL1        0.2241
     22 O         140.7435  138.6486  161.4942 O.2     1  UNL1       -0.2750
     23 H         137.5784  139.9195  162.2128 H       1  UNL1        0.1516
     24 C         138.8760  137.5750  162.9466 C.3     1  UNL1        0.0851
     25 C         138.9480  137.6839  164.4410 C.3     1  UNL1        0.0096
     26 C         140.1759  138.2463  165.0937 C.3     1  UNL1        0.0005
     27 C         141.5174  137.6327  164.8223 C.3     1  UNL1        0.0000
     28 C         142.7453  138.1952  165.4749 C.3     1  UNL1        0.0000
     29 C         142.6316  139.3713  166.3990 C.3     1  UNL1        0.0000
     30 C         141.2900  139.9849  166.6704 C.3     1  UNL1        0.0000
     31 C         140.0621  139.4225  166.0177 C.3     1  UNL1        0.0000
@<TRIPOS>BOND
     1     1     2    1
     2     2     3   am
     3     3     4    2
     4     3     5    1
     5     5    20    1
     6    20    21   am
     7    21    22    2
     8    21    24    1
     9    24    25    1
    10    25    26    1
    11    26    27    1
    12    27    28    1
    13    28    29    1
    14    29    30    1
    15    30    31    1
    16     5     6    1
    17     6     7    2
    18     7    14    1
    19    14    15   ar
    20    15    16   ar
    21    16    17   ar
    22    17    18   ar
    23    18    19   ar
    24     7     8    1
    25     8     9   ar
    26     9    10   ar
    27    10    11   ar
    28    11    12   ar
    29    12    13   ar
    30    13     2    1
    31    31    26    1
    32    19    14   ar
    33    13     8   ar
    34    20    23    1
@<TRIPOS>MOLECULE
*****
 31 34 0 0 0
SMALL
GASTEIGER

@<TRIPOS>ATOM
      1 C         138.4384  137.8488  163.6713 C.3     1  UNL1        0.1201
      2 N         139.3084  138.8360  164.3914 N.am    1  UNL1       -0.2538
      3 C         140.3764  139.4873  163.5637 C.2     1  UNL1        0.2712
      4 O         140.4333  139.0653  162.1255 O.2     1  UNL1       -0.2705
      5 C         141.3952  140.5048  163.9842 C.3     1  UNL1        0.2551
      6 N         141.5975  141.1224  165.3362 N.2     1  UNL1       -0.2434
      7 C         140.8309  140.8748  166.6015 C.2     1  UNL1        0.0795
      8 C         139.6728  139.9487  166.8275 C.ar    1  UNL1        0.0310
      9 C         139.1968  140.0032  168.2489 C.ar    1  UNL1        0.0027
     10 C         138.0432  139.1503  168.6867 C.ar    1  UNL1        0.0001
     11 C         137.3656  138.2429  167.7031 C.ar    1  UNL1        0.0013
     12 C         137.8416  138.1884  166.2817 C.ar    1  UNL1        0.0149
     13 C         138.9952  139.0413  165.8439 C.ar    1  UNL1        0.0554
     14 C         141.2822  141.6569  167.7993 C.ar    1  UNL1        0.0174
     15 C         142.6076  141.3574  168.4348 C.ar    1  UNL1        0.0015
     16 C         143.0588  142.1395  169.6326 C.ar    1  UNL1        0.0000
     17 C         142.1847  143.2210  170.1950 C.ar    1  UNL1        0.0000
     18 C         140.8595  143.5205  169.5596 C.ar    1  UNL1        0.0000
     19 C         140.4081  142.7385  168.3618 C.ar    1  UNL1        0.0015
     20 N         142.3361  140.9658  162.9108 N.am    1  UNL1       -0.2797
     21 C         143.5991  140.2026  162.6421 C.2     1  UNL1        0.2241
     22 O         143.9213  138.9784  163.4468 O.2     1  UNL1       -0.2750
     23 H         142.1246  141.7693  162.3826 H       1  UNL1        0.1516
     24 C         144.5400  140.6636  161.5686 C.3     1  UNL1        0.0851
     25 C         145.2068  142.0026  161.6801 C.3     1  UNL1        0.0096
     26 C         144.8016  142.9541  162.7666 C.3     1  UNL1        0.0005
     27 C         144.0456  144.2039  162.4256 C.3     1  UNL1        0.0000
     28 C         143.6404  145.1554  163.5121 C.3     1  UNL1        0.0000
     29 C         143.9911  144.8571  164.9396 C.3     1  UNL1        0.0000
     30 C         144.7471  143.6072  165.2807 C.3     1  UNL1        0.0000
     31 C         145.1524  142.6557  164.1942 C.3     1  UNL1        0.0000
@<TRIPOS>BOND
     1     1     2    1
     2     2     3   am
     3     3     4    2
     4     3     5    1
     5     5    20    1
     6    20    21   am
     7    21    22    2
     8    21    24    1
     9    24    25    1
    10    25    26    1
    11    26    27    1
    12    27    28    1
    13    28    29    1
    14    29    30    1
    15    30    31    1
    16     5     6    1
    17     6     7    2
    18     7    14    1
    19    14    15   ar
    20    15    16   ar
    21    16    17   ar
    22    17    18   ar
    23    18    19   ar
    24     7     8    1
    25     8     9   ar
    26     9    10   ar
    27    10    11   ar
    28    11    12   ar
    29    12    13   ar
    30    13     2    1
    31    31    26    1
    32    19    14   ar
    33    13     8   ar
    34    20    23    1
@<TRIPOS>MOLECULE
*****
 31 34 0 0 0
SMALL
GASTEIGER

@<TRIPOS>ATOM
      1 C         138.5007  139.3061  162.9988 C.3     1  UNL1        0.1201
      2 N         139.3936  140.1281  163.8802 N.am    1  UNL1       -0.2538
      3 C         140.3817  141.0046  163.1693 C.2     1  UNL1        0.2712
      4 O         140.3462  140.9433  161.6710 O.2     1  UNL1       -0.2705
      5 C         141.4006  141.9344  163.7587 C.3     1  UNL1        0.2551
      6 N         141.6832  142.2173  165.2045 N.2     1  UNL1       -0.2434
      7 C         141.0164  141.6402  166.4179 C.2     1  UNL1        0.0795
      8 C         139.9026  140.6378  166.4854 C.ar    1  UNL1        0.0310
      9 C         139.5288  140.3287  167.9048 C.ar    1  UNL1        0.0027
     10 C         138.4327  139.3466  168.1947 C.ar    1  UNL1        0.0001
     11 C         137.7105  138.6736  167.0653 C.ar    1  UNL1        0.0013
     12 C         138.0843  138.9827  165.6460 C.ar    1  UNL1        0.0149
     13 C         139.1804  139.9648  165.3560 C.ar    1  UNL1        0.0554
     14 C         141.5317  142.1304  167.7386 C.ar    1  UNL1        0.0174
     15 C         142.8950  141.7199  168.2109 C.ar    1  UNL1        0.0015
     16 C         143.4102  142.2101  169.5316 C.ar    1  UNL1        0.0000
     17 C         142.5622  143.1108  170.3800 C.ar    1  UNL1        0.0000
     18 C         141.1990  143.5212  169.9077 C.ar    1  UNL1        0.0000
     19 C         140.6837  143.0311  168.5871 C.ar    1  UNL1        0.0015
     20 N         142.2493  142.6799  162.7718 N.am    1  UNL1       -0.2797
     21 C         143.6331  142.1950  162.4555 C.2     1  UNL1        0.2241
     22 O         144.1682  140.9646  163.1262 O.2     1  UNL1       -0.2750
     23 H         141.8981  143.4875  162.3316 H       1  UNL1        0.1516
     24 C         144.4817  142.9405  161.4686 C.3     1  UNL1        0.0851
     25 C         144.5628  142.4733  160.0455 C.3     1  UNL1        0.0096
     26 C         143.5576  141.4918  159.5200 C.3     1  UNL1        0.0005
     27 C         143.8013  140.0188  159.6643 C.3     1  UNL1        0.0000
     28 C         142.7961  139.0372  159.1388 C.3     1  UNL1        0.0000
     29 C         141.5473  139.5287  158.4689 C.3     1  UNL1        0.0000
     30 C         141.3035  141.0017  158.3245 C.3     1  UNL1        0.0000
     31 C         142.3087  141.9833  158.8500 C.3     1  UNL1        0.0000
@<TRIPOS>BOND
     1     1     2    1
     2     2     3   am
     3     3     4    2
     4     3     5    1
     5     5    20    1
     6    20    21   am
     7    21    22    2
     8    21    24    1
     9    24    25    1
    10    25    26    1
    11    26    27    1
    12    27    28    1
    13    28    29    1
    14    29    30    1
    15    30    31    1
    16     5     6    1
    17     6     7    2
    18     7    14    1
    19    14    15   ar
    20    15    16   ar
    21    16    17   ar
    22    17    18   ar
    23    18    19   ar
    24     7     8    1
    25     8     9   ar
    26     9    10   ar
    27    10    11   ar
    28    11    12   ar
    29    12    13   ar
    30    13     2    1
    31    31    26    1
    32    19    14   ar
    33    13     8   ar
    34    20    23    1
@<TRIPOS>MOLECULE
*****
 31 34 0 0 0
SMALL
GASTEIGER

@<TRIPOS>ATOM
      1 C         138.6771  140.0114  169.6478 C.3     1  UNL1        0.1201
      2 N         139.5566  140.1552  168.4412 N.am    1  UNL1       -0.2538
      3 C         139.0267  139.5521  167.1741 C.2     1  UNL1        0.2712
      4 O         137.6875  138.8852  167.2811 O.2     1  UNL1       -0.2705
      5 C         139.6591  139.5280  165.8141 C.3     1  UNL1        0.2551
      6 N         140.9775  140.1008  165.3853 N.2     1  UNL1       -0.2434
      7 C         141.9891  140.8393  166.2108 C.2     1  UNL1        0.0795
      8 C         141.9322  141.1874  167.6687 C.ar    1  UNL1        0.0310
      9 C         143.1581  141.9355  168.1018 C.ar    1  UNL1        0.0027
     10 C         143.3014  142.3790  169.5275 C.ar    1  UNL1        0.0001
     11 C         142.2189  142.0745  170.5201 C.ar    1  UNL1        0.0013
     12 C         140.9930  141.3265  170.0871 C.ar    1  UNL1        0.0149
     13 C         140.8497  140.8829  168.6614 C.ar    1  UNL1        0.0554
     14 C         143.2204  141.2893  165.4818 C.ar    1  UNL1        0.0174
     15 C         143.5572  142.7492  165.4085 C.ar    1  UNL1        0.0015
     16 C         144.7885  143.1992  164.6796 C.ar    1  UNL1        0.0000
     17 C         145.6831  142.1892  164.0239 C.ar    1  UNL1        0.0000
     18 C         145.3463  140.7295  164.0972 C.ar    1  UNL1        0.0000
     19 C         144.1150  140.2794  164.8261 C.ar    1  UNL1        0.0015
     20 N         138.8686  138.8400  164.7409 N.am    1  UNL1       -0.2797
     21 C         138.5551  139.5592  163.4625 C.2     1  UNL1        0.2241
     22 O         139.0321  140.9665  163.2572 O.2     1  UNL1       -0.2750
     23 H         138.5555  137.9164  164.8757 H       1  UNL1        0.1516
     24 C         137.7645  138.8712  162.3893 C.3     1  UNL1        0.0851
     25 C         138.4720  138.1054  161.3108 C.3     1  UNL1        0.0096
     26 C         139.9358  138.3276  161.0702 C.3     1  UNL1        0.0005
     27 C         140.3879  139.1325  159.8880 C.3     1  UNL1        0.0000
     28 C         141.8517  139.3547  159.6474 C.3     1  UNL1        0.0000
     29 C         142.8634  138.7718  160.5890 C.3     1  UNL1        0.0000
     30 C         142.4114  137.9668  161.7713 C.3     1  UNL1        0.0000
     31 C         140.9476  137.7447  162.0119 C.3     1  UNL1        0.0000
@<TRIPOS>BOND
     1     1     2    1
     2     2     3   am
     3     3     4    2
     4     3     5    1
     5     5    20    1
     6    20    21   am
     7    21    22    2
     8    21    24    1
     9    24    25    1
    10    25    26    1
    11    26    27    1
    12    27    28    1
    13    28    29    1
    14    29    30    1
    15    30    31    1
    16     5     6    1
    17     6     7    2
    18     7    14    1
    19    14    15   ar
    20    15    16   ar
    21    16    17   ar
    22    17    18   ar
    23    18    19   ar
    24     7     8    1
    25     8     9   ar
    26     9    10   ar
    27    10    11   ar
    28    11    12   ar
    29    12    13   ar
    30    13     2    1
    31    31    26    1
    32    19    14   ar
    33    13     8   ar
    34    20    23    1
@<TRIPOS>MOLECULE
*****
 31 34 0 0 0
SMALL
GASTEIGER

@<TRIPOS>ATOM
      1 C         140.2236  145.2335  156.8643 C.3     1  UNL1        0.1201
      2 N         140.2919  144.2524  157.9970 N.am    1  UNL1       -0.2538
      3 C         141.3308  144.5353  159.0413 C.2     1  UNL1        0.2712
      4 O         142.1641  145.7618  158.8149 O.2     1  UNL1       -0.2705
      5 C         141.6466  143.7538  160.2821 C.3     1  UNL1        0.2551
      6 N         141.0015  142.4964  160.7850 N.2     1  UNL1       -0.2434
      7 C         139.8813  141.7101  160.1713 C.2     1  UNL1        0.0795
      8 C         139.1294  141.9867  158.9031 C.ar    1  UNL1        0.0310
      9 C         138.0791  140.9461  158.6506 C.ar    1  UNL1        0.0027
     10 C         137.2115  141.0370  157.4304 C.ar    1  UNL1        0.0001
     11 C         137.3942  142.1684  156.4627 C.ar    1  UNL1        0.0013
     12 C         138.4446  143.2091  156.7152 C.ar    1  UNL1        0.0149
     13 C         139.3122  143.1182  157.9355 C.ar    1  UNL1        0.0554
     14 C         139.4567  140.4849  160.9255 C.ar    1  UNL1        0.0174
     15 C         140.1141  139.1661  160.6449 C.ar    1  UNL1        0.0015
     16 C         139.6895  137.9410  161.3991 C.ar    1  UNL1        0.0000
     17 C         138.6075  138.0347  162.4338 C.ar    1  UNL1        0.0000
     18 C         137.9502  139.3534  162.7144 C.ar    1  UNL1        0.0000
     19 C         138.3747  140.5785  161.9602 C.ar    1  UNL1        0.0015
     20 N         142.7540  144.3022  161.1324 N.am    1  UNL1       -0.2797
     21 C         142.5136  144.5858  162.5855 C.2     1  UNL1        0.2241
     22 O         141.1658  144.3211  163.1884 O.2     1  UNL1       -0.2750
     23 H         143.6386  144.4759  160.7367 H       1  UNL1        0.1516
     24 C         143.6209  145.1342  163.4359 C.3     1  UNL1        0.0851
     25 C         144.0759  144.3822  164.6515 C.3     1  UNL1        0.0096
     26 C         144.1653  142.8852  164.6174 C.3     1  UNL1        0.0005
     27 C         143.1254  142.0558  165.3106 C.3     1  UNL1        0.0000
     28 C         143.2148  140.5589  165.2765 C.3     1  UNL1        0.0000
     29 C         144.3441  139.8913  164.5492 C.3     1  UNL1        0.0000
     30 C         145.3841  140.7208  163.8559 C.3     1  UNL1        0.0000
     31 C         145.2947  142.2177  163.8900 C.3     1  UNL1        0.0000
@<TRIPOS>BOND
     1     1     2    1
     2     2     3   am
     3     3     4    2
     4     3     5    1
     5     5    20    1
     6    20    21   am
     7    21    22    2
     8    21    24    1
     9    24    25    1
    10    25    26    1
    11    26    27    1
    12    27    28    1
    13    28    29    1
    14    29    30    1
    15    30    31    1
    16     5     6    1
    17     6     7    2
    18     7    14    1
    19    14    15   ar
    20    15    16   ar
    21    16    17   ar
    22    17    18   ar
    23    18    19   ar
    24     7     8    1
    25     8     9   ar
    26     9    10   ar
    27    10    11   ar
    28    11    12   ar
    29    12    13   ar
    30    13     2    1
    31    31    26    1
    32    19    14   ar
    33    13     8   ar
    34    20    23    1
@<TRIPOS>MOLECULE
*****
 31 34 0 0 0
SMALL
GASTEIGER

@<TRIPOS>ATOM
      1 C         144.1173  141.7771  158.6573 C.3     1  UNL1        0.1201
      2 N         143.7226  140.3436  158.4594 N.am    1  UNL1       -0.2538
      3 C         143.3820  139.5841  159.7073 C.2     1  UNL1        0.2712
      4 O         143.4811  140.3585  160.9880 O.2     1  UNL1       -0.2705
      5 C         142.9555  138.1525  159.8436 C.3     1  UNL1        0.2551
      6 N         142.7641  137.1268  158.7659 N.2     1  UNL1       -0.2434
      7 C         142.9522  137.2795  157.2856 C.2     1  UNL1        0.0795
      8 C         143.3779  138.4955  156.5174 C.ar    1  UNL1        0.0310
      9 C         143.4413  138.2188  155.0445 C.ar    1  UNL1        0.0027
     10 C         143.8475  139.3058  154.0940 C.ar    1  UNL1        0.0001
     11 C         144.1904  140.6694  154.6164 C.ar    1  UNL1        0.0013
     12 C         144.1271  140.9461  156.0893 C.ar    1  UNL1        0.0149
     13 C         143.7208  139.8591  157.0398 C.ar    1  UNL1        0.0554
     14 C         142.6782  136.0542  156.4650 C.ar    1  UNL1        0.0174
     15 C         143.7206  134.9820  156.3470 C.ar    1  UNL1        0.0015
     16 C         143.4466  133.7566  155.5264 C.ar    1  UNL1        0.0000
     17 C         142.1302  133.6035  154.8236 C.ar    1  UNL1        0.0000
     18 C         141.0879  134.6756  154.9415 C.ar    1  UNL1        0.0000
     19 C         141.3618  135.9010  155.7622 C.ar    1  UNL1        0.0015
     20 N         142.6843  137.6846  161.2428 N.am    1  UNL1       -0.2797
     21 C         141.2929  137.7501  161.7991 C.2     1  UNL1        0.2241
     22 O         140.1725  138.2834  160.9563 O.2     1  UNL1       -0.2750
     23 H         143.4197  137.3346  161.7960 H       1  UNL1        0.1516
     24 C         141.0218  137.2823  163.1983 C.3     1  UNL1        0.0851
     25 C         139.6731  137.5059  163.8158 C.3     1  UNL1        0.0096
     26 C         139.5531  138.2791  165.0955 C.3     1  UNL1        0.0005
     27 C         138.2853  138.2150  165.8945 C.3     1  UNL1        0.0000
     28 C         138.1653  138.9883  167.1742 C.3     1  UNL1        0.0000
     29 C         139.3131  139.8256  167.6550 C.3     1  UNL1        0.0000
     30 C         140.5811  139.8898  166.8560 C.3     1  UNL1        0.0000
     31 C         140.7011  139.1166  165.5763 C.3     1  UNL1        0.0000
@<TRIPOS>BOND
     1     1     2    1
     2     2     3   am
     3     3     4    2
     4     3     5    1
     5     5    20    1
     6    20    21   am
     7    21    22    2
     8    21    24    1
     9    24    25    1
    10    25    26    1
    11    26    27    1
    12    27    28    1
    13    28    29    1
    14    29    30    1
    15    30    31    1
    16     5     6    1
    17     6     7    2
    18     7    14    1
    19    14    15   ar
    20    15    16   ar
    21    16    17   ar
    22    17    18   ar
    23    18    19   ar
    24     7     8    1
    25     8     9   ar
    26     9    10   ar
    27    10    11   ar
    28    11    12   ar
    29    12    13   ar
    30    13     2    1
    31    31    26    1
    32    19    14   ar
    33    13     8   ar
    34    20    23    1
@<TRIPOS>MOLECULE
*****
 31 34 0 0 0
SMALL
GASTEIGER

@<TRIPOS>ATOM
      1 C         144.0987  142.9075  157.7121 C.3     1  UNL1        0.1201
      2 N         142.9616  143.4244  158.5426 N.am    1  UNL1       -0.2538
      3 C         142.1693  144.5443  157.9360 C.2     1  UNL1        0.2712
      4 O         142.6188  144.9992  156.5792 O.2     1  UNL1       -0.2705
      5 C         140.9868  145.2695  158.5069 C.3     1  UNL1        0.2551
      6 N         140.3046  145.0539  159.8253 N.2     1  UNL1       -0.2434
      7 C         140.6366  144.0598  160.8984 C.2     1  UNL1        0.0795
      8 C         141.7325  143.0358  160.9183 C.ar    1  UNL1        0.0310
      9 C         141.7145  142.2383  162.1886 C.ar    1  UNL1        0.0027
     10 C         142.7312  141.1580  162.4103 C.ar    1  UNL1        0.0001
     11 C         143.7660  140.8753  161.3619 C.ar    1  UNL1        0.0013
     12 C         143.7840  141.6728  160.0916 C.ar    1  UNL1        0.0149
     13 C         142.7673  142.7530  159.8698 C.ar    1  UNL1        0.0554
     14 C         139.7560  144.0942  162.1123 C.ar    1  UNL1        0.0174
     15 C         140.1673  144.8910  163.3149 C.ar    1  UNL1        0.0015
     16 C         139.2868  144.9254  164.5288 C.ar    1  UNL1        0.0000
     17 C         137.9950  144.1631  164.5401 C.ar    1  UNL1        0.0000
     18 C         137.5838  143.3664  163.3377 C.ar    1  UNL1        0.0000
     19 C         138.4642  143.3319  162.1238 C.ar    1  UNL1        0.0015
     20 N         140.4102  146.3537  157.6454 N.am    1  UNL1       -0.2797
     21 C         139.4792  146.0040  156.5225 C.2     1  UNL1        0.2241
     22 O         139.1248  144.5700  156.2610 O.2     1  UNL1       -0.2750
     23 H         140.6428  147.2948  157.8170 H       1  UNL1        0.1516
     24 C         138.9026  147.0881  155.6611 C.3     1  UNL1        0.0851
     25 C         139.8015  147.9030  154.7790 C.3     1  UNL1        0.0096
     26 C         139.4647  149.3343  154.4824 C.3     1  UNL1        0.0005
     27 C         138.8205  150.1868  155.5351 C.3     1  UNL1        0.0000
     28 C         138.4836  151.6180  155.2386 C.3     1  UNL1        0.0000
     29 C         138.7909  152.1968  153.8893 C.3     1  UNL1        0.0000
     30 C         139.4351  151.3443  152.8365 C.3     1  UNL1        0.0000
     31 C         139.7720  149.9130  153.1331 C.3     1  UNL1        0.0000
@<TRIPOS>BOND
     1     1     2    1
     2     2     3   am
     3     3     4    2
     4     3     5    1
     5     5    20    1
     6    20    21   am
     7    21    22    2
     8    21    24    1
     9    24    25    1
    10    25    26    1
    11    26    27    1
    12    27    28    1
    13    28    29    1
    14    29    30    1
    15    30    31    1
    16     5     6    1
    17     6     7    2
    18     7    14    1
    19    14    15   ar
    20    15    16   ar
    21    16    17   ar
    22    17    18   ar
    23    18    19   ar
    24     7     8    1
    25     8     9   ar
    26     9    10   ar
    27    10    11   ar
    28    11    12   ar
    29    12    13   ar
    30    13     2    1
    31    31    26    1
    32    19    14   ar
    33    13     8   ar
    34    20    23    1
@<TRIPOS>MOLECULE
*****
 31 34 0 0 0
SMALL
GASTEIGER

@<TRIPOS>ATOM
      1 C         143.5766  139.7973  162.6269 C.3     1  UNL1        0.1201
      2 N         142.7375  140.4939  163.6568 N.am    1  UNL1       -0.2538
      3 C         141.9264  141.6536  163.1595 C.2     1  UNL1        0.2712
      4 O         142.0616  141.9633  161.6981 O.2     1  UNL1       -0.2705
      5 C         140.9980  142.5444  163.9305 C.3     1  UNL1        0.2551
      6 N         140.6514  142.4957  165.3891 N.2     1  UNL1       -0.2434
      7 C         141.1476  141.5440  166.4369 C.2     1  UNL1        0.0795
      8 C         142.1130  140.4060  166.2851 C.ar    1  UNL1        0.0310
      9 C         142.3398  139.7019  167.5900 C.ar    1  UNL1        0.0027
     10 C         143.2743  138.5305  167.6576 C.ar    1  UNL1        0.0001
     11 C         143.9818  138.0632  166.4203 C.ar    1  UNL1        0.0013
     12 C         143.7550  138.7672  165.1154 C.ar    1  UNL1        0.0149
     13 C         142.8206  139.9386  165.0478 C.ar    1  UNL1        0.0554
     14 C         140.6070  141.7587  167.8196 C.ar    1  UNL1        0.0174
     15 C         140.9142  143.0288  168.5562 C.ar    1  UNL1        0.0015
     16 C         140.3735  143.2434  169.9388 C.ar    1  UNL1        0.0000
     17 C         139.5257  142.1880  170.5848 C.ar    1  UNL1        0.0000
     18 C         139.2185  140.9180  169.8483 C.ar    1  UNL1        0.0000
     19 C         139.7591  140.7033  168.4657 C.ar    1  UNL1        0.0015
     20 N         140.3275  143.6273  163.1381 N.am    1  UNL1       -0.2797
     21 C         140.9644  144.9810  163.0294 C.2     1  UNL1        0.2241
     22 O         142.2717  145.2519  163.7131 O.2     1  UNL1       -0.2750
     23 H         139.4695  143.4495  162.6893 H       1  UNL1        0.1516
     24 C         140.2939  146.0638  162.2369 C.3     1  UNL1        0.0851
     25 C         139.5759  145.7265  160.9638 C.3     1  UNL1        0.0096
     26 C         140.2428  144.8659  159.9320 C.3     1  UNL1        0.0005
     27 C         139.6639  143.5265  159.5846 C.3     1  UNL1        0.0000
     28 C         140.3308  142.6660  158.5528 C.3     1  UNL1        0.0000
     29 C         141.5767  143.1448  157.8684 C.3     1  UNL1        0.0000
     30 C         142.1557  144.4843  158.2158 C.3     1  UNL1        0.0000
     31 C         141.4887  145.3449  159.2476 C.3     1  UNL1        0.0000
@<TRIPOS>BOND
     1     1     2    1
     2     2     3   am
     3     3     4    2
     4     3     5    1
     5     5    20    1
     6    20    21   am
     7    21    22    2
     8    21    24    1
     9    24    25    1
    10    25    26    1
    11    26    27    1
    12    27    28    1
    13    28    29    1
    14    29    30    1
    15    30    31    1
    16     5     6    1
    17     6     7    2
    18     7    14    1
    19    14    15   ar
    20    15    16   ar
    21    16    17   ar
    22    17    18   ar
    23    18    19   ar
    24     7     8    1
    25     8     9   ar
    26     9    10   ar
    27    10    11   ar
    28    11    12   ar
    29    12    13   ar
    30    13     2    1
    31    31    26    1
    32    19    14   ar
    33    13     8   ar
    34    20    23    1
