@<TRIPOS>MOLECULE
*****
 20 21 0 0 0
SMALL
GASTEIGER

@<TRIPOS>ATOM
      1 C         141.3404  145.0697  159.4105 C.2     1  UNL1        0.4051
      2 O         142.5882  144.7187  158.6556 O.2     1  UNL1       -0.2262
      3 N         141.1887  144.6536  160.8435 N.am    1  UNL1       -0.2419
      4 C         142.1944  143.8868  161.6501 C.3     1  UNL1        0.1014
      5 C         141.6320  143.6904  163.0268 C.3     1  UNL1        0.0459
      6 C         140.2787  144.3360  163.0710 C.2     1  UNL1       -0.0144
      7 C         139.3605  144.3787  164.2564 C.2     1  UNL1        0.0428
      8 C         140.0048  144.9312  161.7217 C.3     1  UNL1        0.1199
      9 C         139.7725  143.7360  165.5477 C.1     1  UNL1       -0.0582
     10 C         140.1843  143.0933  166.8389 C.1     1  UNL1       -0.0405
     11 C         140.5963  142.4506  168.1302 C.ar    1  UNL1        0.1224
     12 C         140.2484  143.1011  169.4362 C.ar    1  UNL1        0.0276
     13 C         140.6603  142.4584  170.7274 C.ar    1  UNL1        0.0034
     14 C         141.4201  141.1651  170.7125 C.ar    1  UNL1        0.0148
     15 C         141.7680  140.5146  169.4065 C.ar    1  UNL1        0.0600
     16 C         142.5277  139.2213  169.3916 C.3     1  UNL1        0.0521
     17 N         141.3560  141.1573  168.1153 N.ar    1  UNL1       -0.2414
     18 O         140.2442  145.8368  158.7322 O.3     1  UNL1       -0.4345
     19 C         139.3566  147.0461  156.6110 C.3     1  UNL1        0.0513
     20 C         140.2955  146.0668  157.2508 C.3     1  UNL1        0.2102
@<TRIPOS>BOND
     1    19    20    1
     2    20    18    1
     3    18     1    1
     4     1     2    2
     5     1     3   am
     6     3     4    1
     7     4     5    1
     8     5     6    1
     9     6     7    2
    10     7     9    1
    11     9    10    3
    12    10    11    1
    13    11    12   ar
    14    12    13   ar
    15    13    14   ar
    16    14    15   ar
    17    15    16    1
    18    15    17   ar
    19     6     8    1
    20     8     3    1
    21    17    11   ar
@<TRIPOS>MOLECULE
*****
 20 21 0 0 0
SMALL
GASTEIGER

@<TRIPOS>ATOM
      1 C         140.9858  145.3791  160.1301 C.2     1  UNL1        0.4051
      2 O         139.6078  145.9110  159.8691 O.2     1  UNL1       -0.2262
      3 N         141.3121  144.7608  161.4571 N.am    1  UNL1       -0.2419
      4 C         140.3690  144.6054  162.6132 C.3     1  UNL1        0.1014
      5 C         141.1128  143.9378  163.7317 C.3     1  UNL1        0.0459
      6 C         142.5156  143.6806  163.2669 C.2     1  UNL1       -0.0144
      7 C         143.6042  143.0292  164.0674 C.2     1  UNL1        0.0428
      8 C         142.6388  144.1893  161.8612 C.3     1  UNL1        0.1199
      9 C         143.3317  142.5689  165.4688 C.1     1  UNL1       -0.0582
     10 C         143.0591  142.1086  166.8702 C.1     1  UNL1       -0.0405
     11 C         142.7866  141.6482  168.2716 C.ar    1  UNL1        0.1224
     12 C         142.3846  142.6405  169.3221 C.ar    1  UNL1        0.0276
     13 C         142.1121  142.1802  170.7235 C.ar    1  UNL1        0.0034
     14 C         142.2416  140.7276  171.0743 C.ar    1  UNL1        0.0148
     15 C         142.6436  139.7353  170.0237 C.ar    1  UNL1        0.0600
     16 C         142.7732  138.2826  170.3746 C.3     1  UNL1        0.0521
     17 N         142.9161  140.1956  168.6224 N.ar    1  UNL1       -0.2414
     18 O         142.0375  145.4656  159.0641 O.3     1  UNL1       -0.4345
     19 C         142.3981  144.5271  156.6684 C.3     1  UNL1        0.0513
     20 C         141.6452  145.4118  157.6173 C.3     1  UNL1        0.2102
@<TRIPOS>BOND
     1    19    20    1
     2    20    18    1
     3    18     1    1
     4     1     2    2
     5     1     3   am
     6     3     4    1
     7     4     5    1
     8     5     6    1
     9     6     7    2
    10     7     9    1
    11     9    10    3
    12    10    11    1
    13    11    12   ar
    14    12    13   ar
    15    13    14   ar
    16    14    15   ar
    17    15    16    1
    18    15    17   ar
    19     6     8    1
    20     8     3    1
    21    17    11   ar
@<TRIPOS>MOLECULE
*****
 20 21 0 0 0
SMALL
GASTEIGER

@<TRIPOS>ATOM
      1 C         139.0531  140.3626  170.1167 C.2     1  UNL1        0.4051
      2 O         140.1587  140.8296  171.0164 O.2     1  UNL1       -0.2262
      3 N         139.3452  140.0176  168.6865 N.am    1  UNL1       -0.2419
      4 C         140.6862  140.0899  168.0183 C.3     1  UNL1        0.1014
      5 C         140.5174  139.6567  166.5921 C.3     1  UNL1        0.0459
      6 C         139.0720  139.3167  166.3789 C.2     1  UNL1       -0.0144
      7 C         138.4588  138.8377  165.0965 C.2     1  UNL1        0.0428
      8 C         138.3476  139.5397  167.6733 C.3     1  UNL1        0.1199
      9 C         139.3136  138.6608  163.8766 C.1     1  UNL1       -0.0582
     10 C         140.1684  138.4839  162.6567 C.1     1  UNL1       -0.0405
     11 C         141.0232  138.3070  161.4368 C.ar    1  UNL1        0.1224
     12 C         142.4444  137.8483  161.5769 C.ar    1  UNL1        0.0276
     13 C         143.2991  137.6714  160.3571 C.ar    1  UNL1        0.0034
     14 C         142.7326  137.9533  158.9971 C.ar    1  UNL1        0.0148
     15 C         141.3114  138.4120  158.8569 C.ar    1  UNL1        0.0600
     16 C         140.7448  138.6938  157.4969 C.3     1  UNL1        0.0521
     17 N         140.4566  138.5889  160.0768 N.ar    1  UNL1       -0.2414
     18 O         137.6553  140.2407  170.6472 O.3     1  UNL1       -0.4345
     19 C         135.7794  138.7511  171.6531 C.3     1  UNL1        0.0513
     20 C         137.0559  138.8850  170.8768 C.3     1  UNL1        0.2102
@<TRIPOS>BOND
     1    19    20    1
     2    20    18    1
     3    18     1    1
     4     1     2    2
     5     1     3   am
     6     3     4    1
     7     4     5    1
     8     5     6    1
     9     6     7    2
    10     7     9    1
    11     9    10    3
    12    10    11    1
    13    11    12   ar
    14    12    13   ar
    15    13    14   ar
    16    14    15   ar
    17    15    16    1
    18    15    17   ar
    19     6     8    1
    20     8     3    1
    21    17    11   ar
@<TRIPOS>MOLECULE
*****
 20 21 0 0 0
SMALL
GASTEIGER

@<TRIPOS>ATOM
      1 C         139.3393  140.1930  170.0575 C.2     1  UNL1        0.4051
      2 O         137.9056  139.9544  170.4286 O.2     1  UNL1       -0.2262
      3 N         139.7901  139.9954  168.6407 N.am    1  UNL1       -0.2419
      4 C         138.9264  139.5641  167.4927 C.3     1  UNL1        0.1014
      5 C         139.7862  139.4965  166.2654 C.3     1  UNL1        0.0459
      6 C         141.1814  139.8861  166.6550 C.2     1  UNL1       -0.0144
      7 C         142.3662  139.9551  165.7376 C.2     1  UNL1        0.0428
      8 C         141.1838  140.1944  168.1229 C.3     1  UNL1        0.1199
      9 C         142.2106  139.6161  164.2847 C.1     1  UNL1       -0.0582
     10 C         142.0550  139.2772  162.8318 C.1     1  UNL1       -0.0405
     11 C         141.8993  138.9382  161.3789 C.ar    1  UNL1        0.1224
     12 C         142.9600  138.1438  160.6763 C.ar    1  UNL1        0.0276
     13 C         142.8043  137.8048  159.2235 C.ar    1  UNL1        0.0034
     14 C         141.5879  138.2602  158.4732 C.ar    1  UNL1        0.0148
     15 C         140.5271  139.0546  159.1758 C.ar    1  UNL1        0.0600
     16 C         139.3107  139.5100  158.4256 C.3     1  UNL1        0.0521
     17 N         140.6828  139.3936  160.6287 N.ar    1  UNL1       -0.2414
     18 O         140.3221  140.6292  171.1034 O.3     1  UNL1       -0.4345
     19 C         140.0029  143.1143  170.4161 C.3     1  UNL1        0.0513
     20 C         140.7623  142.0617  171.1680 C.3     1  UNL1        0.2102
@<TRIPOS>BOND
     1    19    20    1
     2    20    18    1
     3    18     1    1
     4     1     2    2
     5     1     3   am
     6     3     4    1
     7     4     5    1
     8     5     6    1
     9     6     7    2
    10     7     9    1
    11     9    10    3
    12    10    11    1
    13    11    12   ar
    14    12    13   ar
    15    13    14   ar
    16    14    15   ar
    17    15    16    1
    18    15    17   ar
    19     6     8    1
    20     8     3    1
    21    17    11   ar
@<TRIPOS>MOLECULE
*****
 20 21 0 0 0
SMALL
GASTEIGER

@<TRIPOS>ATOM
      1 C         143.3955  138.7552  159.3407 C.2     1  UNL1        0.4051
      2 O         144.0731  139.8262  158.5383 O.2     1  UNL1       -0.2262
      3 N         143.1254  138.9694  160.8005 N.am    1  UNL1       -0.2419
      4 C         143.4735  140.1959  161.5908 C.3     1  UNL1        0.1014
      5 C         143.0230  139.9793  163.0052 C.3     1  UNL1        0.0459
      6 C         142.3965  138.6189  163.0889 C.2     1  UNL1       -0.0144
      7 C         141.8097  137.9927  164.3191 C.2     1  UNL1        0.0428
      8 C         142.4598  137.9948  161.7264 C.3     1  UNL1        0.1199
      9 C         141.8178  138.7418  165.6188 C.1     1  UNL1       -0.0582
     10 C         141.8259  139.4908  166.9183 C.1     1  UNL1       -0.0405
     11 C         141.8340  140.2399  168.2179 C.ar    1  UNL1        0.1224
     12 C         142.5075  139.6482  169.4204 C.ar    1  UNL1        0.0276
     13 C         142.5156  140.3972  170.7199 C.ar    1  UNL1        0.0034
     14 C         141.8501  141.7381  170.8169 C.ar    1  UNL1        0.0148
     15 C         141.1766  142.3298  169.6143 C.ar    1  UNL1        0.0600
     16 C         140.5112  143.6706  169.7113 C.3     1  UNL1        0.0521
     17 N         141.1686  141.5807  168.3148 N.ar    1  UNL1       -0.2414
     18 O         142.9879  137.4700  158.6833 O.3     1  UNL1       -0.4345
     19 C         143.4225  136.6766  156.2478 C.3     1  UNL1        0.0513
     20 C         142.6048  137.4579  157.2331 C.3     1  UNL1        0.2102
@<TRIPOS>BOND
     1    19    20    1
     2    20    18    1
     3    18     1    1
     4     1     2    2
     5     1     3   am
     6     3     4    1
     7     4     5    1
     8     5     6    1
     9     6     7    2
    10     7     9    1
    11     9    10    3
    12    10    11    1
    13    11    12   ar
    14    12    13   ar
    15    13    14   ar
    16    14    15   ar
    17    15    16    1
    18    15    17   ar
    19     6     8    1
    20     8     3    1
    21    17    11   ar
@<TRIPOS>MOLECULE
*****
 20 21 0 0 0
SMALL
GASTEIGER

@<TRIPOS>ATOM
      1 C         144.4927  142.3774  162.2898 C.2     1  UNL1        0.4051
      2 O         145.0969  142.0962  163.6336 O.2     1  UNL1       -0.2262
      3 N         144.1798  141.2456  161.3565 N.am    1  UNL1       -0.2419
      4 C         144.4142  139.7890  161.6274 C.3     1  UNL1        0.1014
      5 C         143.9568  139.0147  160.4268 C.3     1  UNL1        0.0459
      6 C         143.4398  139.9929  159.4138 C.2     1  UNL1       -0.0144
      7 C         142.8828  139.6522  158.0634 C.2     1  UNL1        0.0428
      8 C         143.5776  141.3716  159.9885 C.3     1  UNL1        0.1199
      9 C         142.8072  138.2203  157.6228 C.1     1  UNL1       -0.0582
     10 C         142.7317  136.7884  157.1823 C.1     1  UNL1       -0.0405
     11 C         142.6562  135.3565  156.7417 C.ar    1  UNL1        0.1224
     12 C         141.6699  134.9470  155.6884 C.ar    1  UNL1        0.0276
     13 C         141.5944  133.5152  155.2479 C.ar    1  UNL1        0.0034
     14 C         142.5052  132.4929  155.8606 C.ar    1  UNL1        0.0148
     15 C         143.4915  132.9025  156.9139 C.ar    1  UNL1        0.0600
     16 C         144.4022  131.8802  157.5267 C.3     1  UNL1        0.0521
     17 N         143.5670  134.3343  157.3545 N.ar    1  UNL1       -0.2414
     18 O         144.2014  143.7904  161.8792 O.3     1  UNL1       -0.4345
     19 C         143.5642  145.1469  164.0015 C.3     1  UNL1        0.0513
     20 C         143.2050  144.6051  162.6496 C.3     1  UNL1        0.2102
@<TRIPOS>BOND
     1    19    20    1
     2    20    18    1
     3    18     1    1
     4     1     2    2
     5     1     3   am
     6     3     4    1
     7     4     5    1
     8     5     6    1
     9     6     7    2
    10     7     9    1
    11     9    10    3
    12    10    11    1
    13    11    12   ar
    14    12    13   ar
    15    13    14   ar
    16    14    15   ar
    17    15    16    1
    18    15    17   ar
    19     6     8    1
    20     8     3    1
    21    17    11   ar
@<TRIPOS>MOLECULE
*****
 20 21 0 0 0
SMALL
GASTEIGER

@<TRIPOS>ATOM
      1 C         139.9845  144.8583  157.7926 C.2     1  UNL1        0.4051
      2 O         139.5607  143.8485  156.7675 O.2     1  UNL1       -0.2262
      3 N         140.0220  144.4830  159.2443 N.am    1  UNL1       -0.2419
      4 C         139.6657  143.1437  159.8182 C.3     1  UNL1        0.1014
      5 C         139.8459  143.2139  161.3057 C.3     1  UNL1        0.0459
      6 C         140.3136  144.5967  161.6512 C.2     1  UNL1       -0.0144
      7 C         140.6189  145.1057  163.0287 C.2     1  UNL1        0.0428
      8 C         140.4225  145.3809  160.3772 C.3     1  UNL1        0.1199
      9 C         140.4629  144.2003  164.2145 C.1     1  UNL1       -0.0582
     10 C         140.3069  143.2950  165.4002 C.1     1  UNL1       -0.0405
     11 C         140.1509  142.3896  166.5860 C.ar    1  UNL1        0.1224
     12 C         139.7147  140.9676  166.3917 C.ar    1  UNL1        0.0276
     13 C         139.5587  140.0623  167.5774 C.ar    1  UNL1        0.0034
     14 C         139.8390  140.5789  168.9575 C.ar    1  UNL1        0.0148
     15 C         140.2751  142.0009  169.1518 C.ar    1  UNL1        0.0600
     16 C         140.5554  142.5175  170.5319 C.3     1  UNL1        0.0521
     17 N         140.4311  142.9062  167.9661 N.ar    1  UNL1       -0.2414
     18 O         140.3708  146.2435  157.3659 O.3     1  UNL1       -0.4345
     19 C         138.9803  147.3313  155.4598 C.3     1  UNL1        0.0513
     20 C         140.2324  146.6517  155.9292 C.3     1  UNL1        0.2102
@<TRIPOS>BOND
     1    19    20    1
     2    20    18    1
     3    18     1    1
     4     1     2    2
     5     1     3   am
     6     3     4    1
     7     4     5    1
     8     5     6    1
     9     6     7    2
    10     7     9    1
    11     9    10    3
    12    10    11    1
    13    11    12   ar
    14    12    13   ar
    15    13    14   ar
    16    14    15   ar
    17    15    16    1
    18    15    17   ar
    19     6     8    1
    20     8     3    1
    21    17    11   ar
@<TRIPOS>MOLECULE
*****
 20 21 0 0 0
SMALL
GASTEIGER

@<TRIPOS>ATOM
      1 C         141.3379  141.9584  169.4801 C.2     1  UNL1        0.4051
      2 O         139.9070  142.0221  169.9258 O.2     1  UNL1       -0.2262
      3 N         141.6846  142.1785  168.0375 N.am    1  UNL1       -0.2419
      4 C         140.7137  142.4702  166.9320 C.3     1  UNL1        0.1014
      5 C         141.4921  142.6176  165.6582 C.3     1  UNL1        0.0459
      6 C         142.9442  142.4170  165.9766 C.2     1  UNL1       -0.0144
      7 C         144.0781  142.4771  164.9965 C.2     1  UNL1        0.0428
      8 C         143.0631  142.1456  167.4470 C.3     1  UNL1        0.1199
      9 C         143.8042  142.7598  163.5491 C.1     1  UNL1       -0.0582
     10 C         143.5304  143.0425  162.1016 C.1     1  UNL1       -0.0405
     11 C         143.2565  143.3252  160.6542 C.ar    1  UNL1        0.1224
     12 C         144.0532  142.6299  159.5904 C.ar    1  UNL1        0.0276
     13 C         143.7793  142.9127  158.1430 C.ar    1  UNL1        0.0034
     14 C         142.7086  143.8907  157.7594 C.ar    1  UNL1        0.0148
     15 C         141.9118  144.5859  158.8232 C.ar    1  UNL1        0.0600
     16 C         140.8412  145.5640  158.4396 C.3     1  UNL1        0.0521
     17 N         142.1858  144.3032  160.2706 N.ar    1  UNL1       -0.2414
     18 O         142.4220  141.6746  170.4772 O.3     1  UNL1       -0.4345
     19 C         142.2698  139.1412  169.9216 C.3     1  UNL1        0.0513
     20 C         142.8881  140.2661  170.6978 C.3     1  UNL1        0.2102
@<TRIPOS>BOND
     1    19    20    1
     2    20    18    1
     3    18     1    1
     4     1     2    2
     5     1     3   am
     6     3     4    1
     7     4     5    1
     8     5     6    1
     9     6     7    2
    10     7     9    1
    11     9    10    3
    12    10    11    1
    13    11    12   ar
    14    12    13   ar
    15    13    14   ar
    16    14    15   ar
    17    15    16    1
    18    15    17   ar
    19     6     8    1
    20     8     3    1
    21    17    11   ar
@<TRIPOS>MOLECULE
*****
 20 21 0 0 0
SMALL
GASTEIGER

@<TRIPOS>ATOM
      1 C         144.3641  141.1818  158.6372 C.2     1  UNL1        0.4051
      2 O         143.8372  139.9772  157.9152 O.2     1  UNL1       -0.2262
      3 N         144.0976  141.3535  160.1033 N.am    1  UNL1       -0.2419
      4 C         143.3244  140.4092  160.9753 C.3     1  UNL1        0.1014
      5 C         143.3064  140.9717  162.3658 C.3     1  UNL1        0.0459
      6 C         144.0687  142.2636  162.3530 C.2     1  UNL1       -0.0144
      7 C         144.3011  143.1618  163.5317 C.2     1  UNL1        0.0428
      8 C         144.5576  142.4995  160.9547 C.3     1  UNL1        0.1199
      9 C         143.7476  142.7932  164.8763 C.1     1  UNL1       -0.0582
     10 C         143.1942  142.4245  166.2208 C.1     1  UNL1       -0.0405
     11 C         142.6407  142.0558  167.5654 C.ar    1  UNL1        0.1224
     12 C         143.4186  142.3707  168.8086 C.ar    1  UNL1        0.0276
     13 C         142.8651  142.0021  170.1531 C.ar    1  UNL1        0.0034
     14 C         141.5338  141.3185  170.2544 C.ar    1  UNL1        0.0148
     15 C         140.7559  141.0036  169.0111 C.ar    1  UNL1        0.0600
     16 C         139.4246  140.3201  169.1124 C.3     1  UNL1        0.0521
     17 N         141.3094  141.3723  167.6666 N.ar    1  UNL1       -0.2414
     18 O         145.1574  142.2147  157.8931 O.3     1  UNL1       -0.4345
     19 C         147.0990  142.6329  156.2182 C.3     1  UNL1        0.0513
     20 C         145.9050  141.8340  156.6497 C.3     1  UNL1        0.2102
@<TRIPOS>BOND
     1    19    20    1
     2    20    18    1
     3    18     1    1
     4     1     2    2
     5     1     3   am
     6     3     4    1
     7     4     5    1
     8     5     6    1
     9     6     7    2
    10     7     9    1
    11     9    10    3
    12    10    11    1
    13    11    12   ar
    14    12    13   ar
    15    13    14   ar
    16    14    15   ar
    17    15    16    1
    18    15    17   ar
    19     6     8    1
    20     8     3    1
    21    17    11   ar
