@<TRIPOS>MOLECULE
*****
 30 33 0 0 0
SMALL
GASTEIGER

@<TRIPOS>ATOM
      1 N         139.0252  144.2585  163.1470 N.ar    1  UNL1       -0.2508
      2 N         137.6946  143.5769  163.0252 N.ar    1  UNL1       -0.1677
      3 C         137.6615  142.4458  164.0098 C.ar    1  UNL1        0.1216
      4 C         138.9716  142.4283  164.7401 C.ar    1  UNL1        0.0396
      5 C         139.5059  141.5371  165.8217 C.ar    1  UNL1        0.0207
      6 C         140.8831  141.7661  166.3701 C.ar    1  UNL1        0.0670
      7 C         141.7260  142.8865  165.8369 C.ar    1  UNL1        0.0191
      8 C         141.1916  143.7778  164.7552 C.ar    1  UNL1        0.0203
      9 C         139.8144  143.5487  164.2068 C.ar    1  UNL1        0.0795
     10 N         141.4176  140.8748  167.4519 N.ar    1  UNL1       -0.2729
     11 C         142.3827  139.7782  167.1114 C.ar    1  UNL1        0.0860
     12 C         142.9171  138.8869  168.1930 C.ar    1  UNL1        0.0561
     13 C         142.4864  139.0922  169.6152 C.ar    1  UNL1        0.1453
     14 C         141.5213  140.1888  169.9556 C.ar    1  UNL1        0.0980
     15 C         140.9868  141.0802  168.8739 C.ar    1  UNL1        0.2679
     16 O         140.0217  142.1768  169.2143 O.2     1  UNL1       -0.2665
     17 O         143.0208  138.2009  170.6968 O.3     1  UNL1       -0.4704
     18 C         143.8870  137.0285  170.3428 C.3     1  UNL1        0.2320
     19 C         144.7506  136.3907  171.3904 C.ar    1  UNL1        0.0212
     20 C         145.7285  137.2234  172.1652 C.ar    1  UNL1       -0.0007
     21 C         146.5921  136.5854  173.2127 C.ar    1  UNL1       -0.0002
     22 C         146.4777  135.1149  173.4855 C.ar    1  UNL1       -0.0000
     23 C         145.4998  134.2823  172.7107 C.ar    1  UNL1       -0.0002
     24 C         144.6362  134.9201  171.6632 C.ar    1  UNL1       -0.0007
     25 C         139.4858  145.4422  162.3490 C.3     1  UNL1        0.1289
     26 C         140.8816  145.4800  161.8008 C.3     1  UNL1        0.0437
     27 C         141.2227  144.7034  160.5637 C.3     1  UNL1        0.0742
     28 C         142.9023  143.2362  159.2311 C.3     1  UNL1        0.0897
     29 N         142.4754  143.8796  160.5170 N.3     1  UNL1       -0.2703
     30 C         143.3010  143.6991  161.7563 C.3     1  UNL1        0.0897
@<TRIPOS>BOND
     1    28    29    1
     2    29    30    1
     3    29    27    1
     4    27    26    1
     5    26    25    1
     6    25     1    1
     7     1     2   ar
     8     2     3   ar
     9     3     4   ar
    10     4     5   ar
    11     5     6   ar
    12     6    10    1
    13    10    11   ar
    14    11    12   ar
    15    12    13   ar
    16    13    17    1
    17    17    18    1
    18    18    19    1
    19    19    20   ar
    20    20    21   ar
    21    21    22   ar
    22    22    23   ar
    23    23    24   ar
    24    13    14   ar
    25    14    15   ar
    26    15    16    2
    27     6     7   ar
    28     7     8   ar
    29     8     9   ar
    30     9     1   ar
    31     9     4   ar
    32    15    10   ar
    33    24    19   ar
@<TRIPOS>MOLECULE
*****
 30 33 0 0 0
SMALL
GASTEIGER

@<TRIPOS>ATOM
      1 N         139.4993  140.0992  167.6500 N.ar    1  UNL1       -0.2508
      2 N         138.3902  139.1488  167.9913 N.ar    1  UNL1       -0.1677
      3 C         137.7680  138.6828  166.7085 C.ar    1  UNL1        0.1216
      4 C         138.4925  139.3452  165.5744 C.ar    1  UNL1        0.0396
      5 C         138.3162  139.2643  164.0870 C.ar    1  UNL1        0.0207
      6 C         139.2099  140.0589  163.1815 C.ar    1  UNL1        0.0670
      7 C         140.2800  140.9343  163.7634 C.ar    1  UNL1        0.0191
      8 C         140.4563  141.0152  165.2508 C.ar    1  UNL1        0.0203
      9 C         139.5626  140.2206  166.1563 C.ar    1  UNL1        0.0795
     10 N         139.0336  139.9780  161.6941 N.ar    1  UNL1       -0.2729
     11 C         139.6344  138.8365  160.9286 C.ar    1  UNL1        0.0860
     12 C         139.4581  138.7556  159.4412 C.ar    1  UNL1        0.0561
     13 C         138.6810  139.8163  158.7192 C.ar    1  UNL1        0.1453
     14 C         138.0802  140.9578  159.4847 C.ar    1  UNL1        0.0980
     15 C         138.2565  141.0386  160.9722 C.ar    1  UNL1        0.2679
     16 O         137.6557  142.1802  161.7377 O.2     1  UNL1       -0.2665
     17 O         138.5047  139.7354  157.2319 O.3     1  UNL1       -0.4704
     18 C         138.1026  140.9551  156.4568 C.3     1  UNL1        0.2320
     19 C         136.8036  140.9727  155.7071 C.ar    1  UNL1        0.0212
     20 C         135.5171  140.7013  156.4292 C.ar    1  UNL1       -0.0007
     21 C         134.2180  140.7190  155.6794 C.ar    1  UNL1       -0.0002
     22 C         134.2054  141.0081  154.2076 C.ar    1  UNL1       -0.0000
     23 C         135.4919  141.2794  153.4855 C.ar    1  UNL1       -0.0002
     24 C         136.7909  141.2618  154.2352 C.ar    1  UNL1       -0.0007
     25 C         140.3891  140.8045  168.6303 C.3     1  UNL1        0.1289
     26 C         140.0584  140.7832  170.0934 C.3     1  UNL1        0.0437
     27 C         140.7389  141.7369  171.0300 C.3     1  UNL1        0.0742
     28 C         142.8908  143.0913  170.4964 C.3     1  UNL1        0.0897
     29 N         141.3954  142.9745  170.4939 N.3     1  UNL1       -0.2703
     30 C         140.5564  144.0953  169.9553 C.3     1  UNL1        0.0897
@<TRIPOS>BOND
     1    28    29    1
     2    29    30    1
     3    29    27    1
     4    27    26    1
     5    26    25    1
     6    25     1    1
     7     1     2   ar
     8     2     3   ar
     9     3     4   ar
    10     4     5   ar
    11     5     6   ar
    12     6    10    1
    13    10    11   ar
    14    11    12   ar
    15    12    13   ar
    16    13    17    1
    17    17    18    1
    18    18    19    1
    19    19    20   ar
    20    20    21   ar
    21    21    22   ar
    22    22    23   ar
    23    23    24   ar
    24    13    14   ar
    25    14    15   ar
    26    15    16    2
    27     6     7   ar
    28     7     8   ar
    29     8     9   ar
    30     9     1   ar
    31     9     4   ar
    32    15    10   ar
    33    24    19   ar
@<TRIPOS>MOLECULE
*****
 30 33 0 0 0
SMALL
GASTEIGER

@<TRIPOS>ATOM
      1 N         139.6454  139.9715  167.7387 N.ar    1  UNL1       -0.2508
      2 N         138.4270  139.1705  168.0909 N.ar    1  UNL1       -0.1677
      3 C         137.7915  138.7076  166.8134 C.ar    1  UNL1        0.1216
      4 C         138.6170  139.2225  165.6718 C.ar    1  UNL1        0.0396
      5 C         138.4734  139.0810  164.1854 C.ar    1  UNL1        0.0207
      6 C         139.4757  139.7207  163.2709 C.ar    1  UNL1        0.0670
      7 C         140.6215  140.5018  163.8428 C.ar    1  UNL1        0.0191
      8 C         140.7650  140.6433  165.3291 C.ar    1  UNL1        0.0203
      9 C         139.7628  140.0036  166.2436 C.ar    1  UNL1        0.0795
     10 N         139.3321  139.5792  161.7845 N.ar    1  UNL1       -0.2729
     11 C         138.4331  140.5100  161.0259 C.ar    1  UNL1        0.0860
     12 C         138.2896  140.3685  159.5395 C.ar    1  UNL1        0.0561
     13 C         139.0450  139.2963  158.8116 C.ar    1  UNL1        0.1453
     14 C         139.9440  138.3655  159.5702 C.ar    1  UNL1        0.0980
     15 C         140.0876  138.5070  161.0567 C.ar    1  UNL1        0.2679
     16 O         140.9866  137.5762  161.8153 O.2     1  UNL1       -0.2665
     17 O         138.9015  139.1549  157.3253 O.3     1  UNL1       -0.4704
     18 C         138.5895  140.3570  156.4841 C.3     1  UNL1        0.2320
     19 C         137.3093  140.4153  155.7048 C.ar    1  UNL1        0.0212
     20 C         137.1340  139.5598  154.4852 C.ar    1  UNL1       -0.0007
     21 C         135.8537  139.6181  153.7058 C.ar    1  UNL1       -0.0002
     22 C         134.7486  140.5320  154.1460 C.ar    1  UNL1       -0.0000
     23 C         134.9239  141.3875  155.3656 C.ar    1  UNL1       -0.0002
     24 C         136.2042  141.3292  156.1450 C.ar    1  UNL1       -0.0007
     25 C         140.5819  140.6255  168.7109 C.3     1  UNL1        0.1289
     26 C         140.3128  140.5409  170.1842 C.3     1  UNL1        0.0437
     27 C         140.6833  141.6847  171.0812 C.3     1  UNL1        0.0742
     28 C         142.7940  143.0623  170.4510 C.3     1  UNL1        0.0897
     29 N         141.3013  142.9224  170.5016 N.3     1  UNL1       -0.2703
     30 C         140.4268  144.0204  169.9727 C.3     1  UNL1        0.0897
@<TRIPOS>BOND
     1    28    29    1
     2    29    30    1
     3    29    27    1
     4    27    26    1
     5    26    25    1
     6    25     1    1
     7     1     2   ar
     8     2     3   ar
     9     3     4   ar
    10     4     5   ar
    11     5     6   ar
    12     6    10    1
    13    10    11   ar
    14    11    12   ar
    15    12    13   ar
    16    13    17    1
    17    17    18    1
    18    18    19    1
    19    19    20   ar
    20    20    21   ar
    21    21    22   ar
    22    22    23   ar
    23    23    24   ar
    24    13    14   ar
    25    14    15   ar
    26    15    16    2
    27     6     7   ar
    28     7     8   ar
    29     8     9   ar
    30     9     1   ar
    31     9     4   ar
    32    15    10   ar
    33    24    19   ar
@<TRIPOS>MOLECULE
*****
 30 33 0 0 0
SMALL
GASTEIGER

@<TRIPOS>ATOM
      1 N         139.9588  144.7889  156.5807 N.ar    1  UNL1       -0.2508
      2 N         138.9984  143.7178  156.1559 N.ar    1  UNL1       -0.1677
      3 C         138.6271  142.9200  157.3707 C.ar    1  UNL1        0.1216
      4 C         139.3580  143.4979  158.5461 C.ar    1  UNL1        0.0396
      5 C         139.3805  143.1217  159.9980 C.ar    1  UNL1        0.0207
      6 C         140.2260  143.9004  160.9616 C.ar    1  UNL1        0.0670
      7 C         141.0491  145.0555  160.4733 C.ar    1  UNL1        0.0191
      8 C         141.0266  145.4318  159.0215 C.ar    1  UNL1        0.0203
      9 C         140.1811  144.6530  158.0579 C.ar    1  UNL1        0.0795
     10 N         140.2484  143.5242  162.4135 N.ar    1  UNL1       -0.2729
     11 C         141.4940  142.9491  163.0200 C.ar    1  UNL1        0.0860
     12 C         141.5165  142.5728  164.4719 C.ar    1  UNL1        0.0561
     13 C         140.2934  142.7717  165.3172 C.ar    1  UNL1        0.1453
     14 C         139.0479  143.3468  164.7107 C.ar    1  UNL1        0.0980
     15 C         139.0254  143.7230  163.2588 C.ar    1  UNL1        0.2679
     16 O         137.7799  144.2981  162.6523 O.2     1  UNL1       -0.2665
     17 O         140.3160  142.3954  166.7691 O.3     1  UNL1       -0.4704
     18 C         139.8775  141.0259  167.1958 C.3     1  UNL1        0.2320
     19 C         140.1347  139.8452  166.3072 C.ar    1  UNL1        0.0212
     20 C         138.9870  139.1355  165.6520 C.ar    1  UNL1       -0.0007
     21 C         139.2443  137.9548  164.7633 C.ar    1  UNL1       -0.0002
     22 C         140.6491  137.4838  164.5298 C.ar    1  UNL1       -0.0000
     23 C         141.7968  138.1934  165.1849 C.ar    1  UNL1       -0.0002
     24 C         141.5396  139.3741  166.0736 C.ar    1  UNL1       -0.0007
     25 C         140.5868  145.8156  155.6854 C.3     1  UNL1        0.1289
     26 C         140.0309  147.2080  155.6357 C.3     1  UNL1        0.0437
     27 C         138.9423  147.6153  156.5840 C.3     1  UNL1        0.0742
     28 C         138.0148  149.5819  158.0058 C.3     1  UNL1        0.0897
     29 N         138.5582  149.0598  156.7089 N.3     1  UNL1       -0.2703
     30 C         138.7176  149.9824  155.5369 C.3     1  UNL1        0.0897
@<TRIPOS>BOND
     1    28    29    1
     2    29    30    1
     3    29    27    1
     4    27    26    1
     5    26    25    1
     6    25     1    1
     7     1     2   ar
     8     2     3   ar
     9     3     4   ar
    10     4     5   ar
    11     5     6   ar
    12     6    10    1
    13    10    11   ar
    14    11    12   ar
    15    12    13   ar
    16    13    17    1
    17    17    18    1
    18    18    19    1
    19    19    20   ar
    20    20    21   ar
    21    21    22   ar
    22    22    23   ar
    23    23    24   ar
    24    13    14   ar
    25    14    15   ar
    26    15    16    2
    27     6     7   ar
    28     7     8   ar
    29     8     9   ar
    30     9     1   ar
    31     9     4   ar
    32    15    10   ar
    33    24    19   ar
@<TRIPOS>MOLECULE
*****
 30 33 0 0 0
SMALL
GASTEIGER

@<TRIPOS>ATOM
      1 N         138.7354  145.1588  155.2890 N.ar    1  UNL1       -0.2508
      2 N         137.4615  144.7501  154.6107 N.ar    1  UNL1       -0.1677
      3 C         136.8762  143.6013  155.3773 C.ar    1  UNL1        0.1216
      4 C         137.7883  143.3001  156.5294 C.ar    1  UNL1        0.0396
      5 C         137.7210  142.2736  157.6210 C.ar    1  UNL1        0.0207
      6 C         138.8028  142.2097  158.6581 C.ar    1  UNL1        0.0670
      7 C         139.9519  143.1723  158.6035 C.ar    1  UNL1        0.0191
      8 C         140.0192  144.1988  157.5119 C.ar    1  UNL1        0.0203
      9 C         138.9374  144.2626  156.4748 C.ar    1  UNL1        0.0795
     10 N         138.7355  141.1832  159.7499 N.ar    1  UNL1       -0.2729
     11 C         139.2128  139.7843  159.4944 C.ar    1  UNL1        0.0860
     12 C         139.1455  138.7578  160.5861 C.ar    1  UNL1        0.0561
     13 C         138.6010  139.1302  161.9333 C.ar    1  UNL1        0.1453
     14 C         138.1238  140.5292  162.1887 C.ar    1  UNL1        0.0980
     15 C         138.1910  141.5557  161.0970 C.ar    1  UNL1        0.2679
     16 O         137.7138  142.9546  161.3524 O.2     1  UNL1       -0.2665
     17 O         138.5338  138.1038  163.0249 O.3     1  UNL1       -0.4704
     18 C         138.6632  138.5243  164.4589 C.3     1  UNL1        0.2320
     19 C         140.0214  138.7426  165.0568 C.ar    1  UNL1        0.0212
     20 C         140.2419  139.8643  166.0280 C.ar    1  UNL1       -0.0007
     21 C         141.6003  140.0826  166.6259 C.ar    1  UNL1       -0.0002
     22 C         142.7380  139.1792  166.2526 C.ar    1  UNL1       -0.0000
     23 C         142.5175  138.0575  165.2814 C.ar    1  UNL1       -0.0002
     24 C         141.1593  137.8392  164.6835 C.ar    1  UNL1       -0.0007
     25 C         139.6473  146.2688  154.8573 C.3     1  UNL1        0.1289
     26 C         139.3376  147.6857  155.2402 C.3     1  UNL1        0.0437
     27 C         138.8467  147.9989  156.6226 C.3     1  UNL1        0.0742
     28 C         137.9481  149.7130  158.3557 C.3     1  UNL1        0.0897
     29 N         138.3945  149.3884  156.9609 N.3     1  UNL1       -0.2703
     30 C         138.3886  150.4534  155.9046 C.3     1  UNL1        0.0897
@<TRIPOS>BOND
     1    28    29    1
     2    29    30    1
     3    29    27    1
     4    27    26    1
     5    26    25    1
     6    25     1    1
     7     1     2   ar
     8     2     3   ar
     9     3     4   ar
    10     4     5   ar
    11     5     6   ar
    12     6    10    1
    13    10    11   ar
    14    11    12   ar
    15    12    13   ar
    16    13    17    1
    17    17    18    1
    18    18    19    1
    19    19    20   ar
    20    20    21   ar
    21    21    22   ar
    22    22    23   ar
    23    23    24   ar
    24    13    14   ar
    25    14    15   ar
    26    15    16    2
    27     6     7   ar
    28     7     8   ar
    29     8     9   ar
    30     9     1   ar
    31     9     4   ar
    32    15    10   ar
    33    24    19   ar
@<TRIPOS>MOLECULE
*****
 30 33 0 0 0
SMALL
GASTEIGER

@<TRIPOS>ATOM
      1 N         139.2343  139.5498  167.4072 N.ar    1  UNL1       -0.2508
      2 N         138.0808  138.5941  167.3291 N.ar    1  UNL1       -0.1677
      3 C         138.1025  137.9512  165.9740 C.ar    1  UNL1        0.1216
      4 C         139.2694  138.5096  165.2147 C.ar    1  UNL1        0.0396
      5 C         139.7853  138.2461  163.8311 C.ar    1  UNL1        0.0207
      6 C         141.0008  138.9706  163.3333 C.ar    1  UNL1        0.0670
      7 C         141.7003  139.9585  164.2191 C.ar    1  UNL1        0.0191
      8 C         141.1843  140.2220  165.6027 C.ar    1  UNL1        0.0203
      9 C         139.9689  139.4976  166.1005 C.ar    1  UNL1        0.0795
     10 N         141.5168  138.7071  161.9497 N.ar    1  UNL1       -0.2729
     11 C         142.7186  137.8317  161.7515 C.ar    1  UNL1        0.0860
     12 C         143.2347  137.5682  160.3680 C.ar    1  UNL1        0.0561
     13 C         142.5488  138.1800  159.1825 C.ar    1  UNL1        0.1453
     14 C         141.3469  139.0554  159.3806 C.ar    1  UNL1        0.0980
     15 C         140.8309  139.3189  160.7643 C.ar    1  UNL1        0.2679
     16 O         139.6290  140.1942  160.9624 O.2     1  UNL1       -0.2665
     17 O         143.0648  137.9165  157.7990 O.3     1  UNL1       -0.4704
     18 C         142.1674  137.2966  156.7692 C.3     1  UNL1        0.2320
     19 C         142.2289  135.8201  156.5120 C.ar    1  UNL1        0.0212
     20 C         143.1711  134.9600  157.3008 C.ar    1  UNL1       -0.0007
     21 C         143.2326  133.4834  157.0436 C.ar    1  UNL1       -0.0002
     22 C         142.3517  132.8671  155.9976 C.ar    1  UNL1       -0.0000
     23 C         141.4094  133.7273  155.2087 C.ar    1  UNL1       -0.0002
     24 C         141.3480  135.2037  155.4659 C.ar    1  UNL1       -0.0007
     25 C         139.5907  140.4072  168.5853 C.3     1  UNL1        0.1289
     26 C         140.7171  140.0063  169.4913 C.3     1  UNL1        0.0437
     27 C         141.3634  141.0265  170.3810 C.3     1  UNL1        0.0742
     28 C         142.8033  143.1762  170.6155 C.3     1  UNL1        0.0897
     29 N         142.3727  141.9819  169.8166 N.3     1  UNL1       -0.2703
     30 C         142.9513  141.7430  168.4535 C.3     1  UNL1        0.0897
@<TRIPOS>BOND
     1    28    29    1
     2    29    30    1
     3    29    27    1
     4    27    26    1
     5    26    25    1
     6    25     1    1
     7     1     2   ar
     8     2     3   ar
     9     3     4   ar
    10     4     5   ar
    11     5     6   ar
    12     6    10    1
    13    10    11   ar
    14    11    12   ar
    15    12    13   ar
    16    13    17    1
    17    17    18    1
    18    18    19    1
    19    19    20   ar
    20    20    21   ar
    21    21    22   ar
    22    22    23   ar
    23    23    24   ar
    24    13    14   ar
    25    14    15   ar
    26    15    16    2
    27     6     7   ar
    28     7     8   ar
    29     8     9   ar
    30     9     1   ar
    31     9     4   ar
    32    15    10   ar
    33    24    19   ar
@<TRIPOS>MOLECULE
*****
 30 33 0 0 0
SMALL
GASTEIGER

@<TRIPOS>ATOM
      1 N         139.2224  139.8862  168.0191 N.ar    1  UNL1       -0.2508
      2 N         138.2640  138.9251  167.3806 N.ar    1  UNL1       -0.1677
      3 C         138.1621  139.2707  165.9245 C.ar    1  UNL1        0.1216
      4 C         139.0575  140.4454  165.6631 C.ar    1  UNL1        0.0396
      5 C         139.3608  141.2179  164.4136 C.ar    1  UNL1        0.0207
      6 C         140.3194  142.3707  164.4586 C.ar    1  UNL1        0.0670
      7 C         140.9747  142.7510  165.7532 C.ar    1  UNL1        0.0191
      8 C         140.6714  141.9786  167.0027 C.ar    1  UNL1        0.0203
      9 C         139.7128  140.8258  166.9577 C.ar    1  UNL1        0.0795
     10 N         140.6227  143.1432  163.2091 N.ar    1  UNL1       -0.2729
     11 C         141.5214  142.5539  162.1626 C.ar    1  UNL1        0.0860
     12 C         141.8248  143.3263  160.9131 C.ar    1  UNL1        0.0561
     13 C         141.2293  144.6881  160.7100 C.ar    1  UNL1        0.1453
     14 C         140.3306  145.2773  161.7564 C.ar    1  UNL1        0.0980
     15 C         140.0273  144.5048  163.0060 C.ar    1  UNL1        0.2679
     16 O         139.1285  145.0941  164.0524 O.2     1  UNL1       -0.2665
     17 O         141.5327  145.4605  159.4605 O.3     1  UNL1       -0.4704
     18 C         140.4816  145.6173  158.4019 C.3     1  UNL1        0.2320
     19 C         140.8773  145.6881  156.9568 C.ar    1  UNL1        0.0212
     20 C         142.0095  144.8465  156.4471 C.ar    1  UNL1       -0.0007
     21 C         142.4052  144.9174  155.0019 C.ar    1  UNL1       -0.0002
     22 C         141.6686  145.8298  154.0665 C.ar    1  UNL1       -0.0000
     23 C         140.5364  146.6714  154.5762 C.ar    1  UNL1       -0.0002
     24 C         140.1407  146.6005  156.0213 C.ar    1  UNL1       -0.0007
     25 C         139.6206  139.9045  169.4652 C.3     1  UNL1        0.1289
     26 C         139.6187  141.1965  170.2273 C.3     1  UNL1        0.0437
     27 C         140.7590  141.5283  171.1437 C.3     1  UNL1        0.0742
     28 C         142.9999  140.5508  170.2650 C.3     1  UNL1        0.0897
     29 N         142.1353  141.7343  170.5841 N.3     1  UNL1       -0.2703
     30 C         142.6470  143.1236  170.3436 C.3     1  UNL1        0.0897
@<TRIPOS>BOND
     1    28    29    1
     2    29    30    1
     3    29    27    1
     4    27    26    1
     5    26    25    1
     6    25     1    1
     7     1     2   ar
     8     2     3   ar
     9     3     4   ar
    10     4     5   ar
    11     5     6   ar
    12     6    10    1
    13    10    11   ar
    14    11    12   ar
    15    12    13   ar
    16    13    17    1
    17    17    18    1
    18    18    19    1
    19    19    20   ar
    20    20    21   ar
    21    21    22   ar
    22    22    23   ar
    23    23    24   ar
    24    13    14   ar
    25    14    15   ar
    26    15    16    2
    27     6     7   ar
    28     7     8   ar
    29     8     9   ar
    30     9     1   ar
    31     9     4   ar
    32    15    10   ar
    33    24    19   ar
@<TRIPOS>MOLECULE
*****
 30 33 0 0 0
SMALL
GASTEIGER

@<TRIPOS>ATOM
      1 N         139.7249  139.9897  167.8867 N.ar    1  UNL1       -0.2508
      2 N         138.6087  139.0839  167.4582 N.ar    1  UNL1       -0.1677
      3 C         138.1539  139.5207  166.0972 C.ar    1  UNL1        0.1216
      4 C         138.9891  140.6964  165.6846 C.ar    1  UNL1        0.0396
      5 C         138.9908  141.5405  164.4446 C.ar    1  UNL1        0.0207
      6 C         139.9635  142.6744  164.3107 C.ar    1  UNL1        0.0670
      7 C         140.9345  142.9643  165.4168 C.ar    1  UNL1        0.0191
      8 C         140.9327  142.1202  166.6567 C.ar    1  UNL1        0.0203
      9 C         139.9600  140.9863  166.7906 C.ar    1  UNL1        0.0795
     10 N         139.9653  143.5186  163.0708 N.ar    1  UNL1       -0.2729
     11 C         139.5547  144.9594  163.1438 C.ar    1  UNL1        0.0860
     12 C         139.5565  145.8036  161.9039 C.ar    1  UNL1        0.0561
     13 C         139.9689  145.2069  160.5909 C.ar    1  UNL1        0.1453
     14 C         140.3796  143.7661  160.5179 C.ar    1  UNL1        0.0980
     15 C         140.3777  142.9219  161.7578 C.ar    1  UNL1        0.2679
     16 O         140.7884  141.4810  161.6848 O.2     1  UNL1       -0.2665
     17 O         139.9707  146.0511  159.3510 O.3     1  UNL1       -0.4704
     18 C         140.2034  145.4164  158.0119 C.3     1  UNL1        0.2320
     19 C         140.0703  146.2338  156.7613 C.ar    1  UNL1        0.0212
     20 C         139.0826  147.3613  156.7038 C.ar    1  UNL1       -0.0007
     21 C         138.9495  148.1787  155.4530 C.ar    1  UNL1       -0.0002
     22 C         139.8041  147.8686  154.2600 C.ar    1  UNL1       -0.0000
     23 C         140.7918  146.7411  154.3175 C.ar    1  UNL1       -0.0002
     24 C         140.9249  145.9238  155.5681 C.ar    1  UNL1       -0.0007
     25 C         140.4745  139.9124  169.1837 C.3     1  UNL1        0.1289
     26 C         140.0111  140.7104  170.3665 C.3     1  UNL1        0.0437
     27 C         139.6531  142.1576  170.2011 C.3     1  UNL1        0.0742
     28 C         140.3641  144.6564  170.2060 C.3     1  UNL1        0.0897
     29 N         140.7300  143.2017  170.2049 N.3     1  UNL1       -0.2703
     30 C         142.1727  142.7911  170.2077 C.3     1  UNL1        0.0897
@<TRIPOS>BOND
     1    28    29    1
     2    29    30    1
     3    29    27    1
     4    27    26    1
     5    26    25    1
     6    25     1    1
     7     1     2   ar
     8     2     3   ar
     9     3     4   ar
    10     4     5   ar
    11     5     6   ar
    12     6    10    1
    13    10    11   ar
    14    11    12   ar
    15    12    13   ar
    16    13    17    1
    17    17    18    1
    18    18    19    1
    19    19    20   ar
    20    20    21   ar
    21    21    22   ar
    22    22    23   ar
    23    23    24   ar
    24    13    14   ar
    25    14    15   ar
    26    15    16    2
    27     6     7   ar
    28     7     8   ar
    29     8     9   ar
    30     9     1   ar
    31     9     4   ar
    32    15    10   ar
    33    24    19   ar
@<TRIPOS>MOLECULE
*****
 30 33 0 0 0
SMALL
GASTEIGER

@<TRIPOS>ATOM
      1 N         139.5091  139.5078  166.6901 N.ar    1  UNL1       -0.2508
      2 N         138.5290  138.3859  166.8652 N.ar    1  UNL1       -0.1677
      3 C         138.4472  137.6354  165.5691 C.ar    1  UNL1        0.1216
      4 C         139.3767  138.2934  164.5929 C.ar    1  UNL1        0.0396
      5 C         139.7102  137.9884  163.1626 C.ar    1  UNL1        0.0207
      6 C         140.7001  138.8406  162.4252 C.ar    1  UNL1        0.0670
      7 C         141.3564  139.9979  163.1180 C.ar    1  UNL1        0.0191
      8 C         141.0229  140.3029  164.5483 C.ar    1  UNL1        0.0203
      9 C         140.0330  139.4507  165.2857 C.ar    1  UNL1        0.0795
     10 N         141.0337  138.5357  160.9949 N.ar    1  UNL1       -0.2729
     11 C         140.0167  138.7787  159.9193 C.ar    1  UNL1        0.0860
     12 C         140.3502  138.4737  158.4891 C.ar    1  UNL1        0.0561
     13 C         141.7007  137.9257  158.1342 C.ar    1  UNL1        0.1453
     14 C         142.7177  137.6827  159.2098 C.ar    1  UNL1        0.0980
     15 C         142.3841  137.9877  160.6401 C.ar    1  UNL1        0.2679
     16 O         143.4011  137.7446  161.7156 O.2     1  UNL1       -0.2665
     17 O         142.0343  137.6207  156.7040 O.3     1  UNL1       -0.4704
     18 C         143.1473  136.6688  156.3799 C.3     1  UNL1        0.2320
     19 C         142.8748  135.1960  156.2987 C.ar    1  UNL1        0.0212
     20 C         141.8071  134.6804  155.3799 C.ar    1  UNL1       -0.0007
     21 C         141.5347  133.2075  155.2988 C.ar    1  UNL1       -0.0002
     22 C         142.3298  132.2504  156.1363 C.ar    1  UNL1       -0.0000
     23 C         143.3975  132.7661  157.0551 C.ar    1  UNL1       -0.0002
     24 C         143.6700  134.2389  157.1363 C.ar    1  UNL1       -0.0007
     25 C         139.8973  140.5108  167.7358 C.3     1  UNL1        0.1289
     26 C         139.5765  140.2527  169.1782 C.3     1  UNL1        0.0437
     27 C         140.5737  140.6032  170.2426 C.3     1  UNL1        0.0742
     28 C         142.5421  138.9303  169.9661 C.3     1  UNL1        0.0897
     29 N         142.0334  140.3404  170.0184 N.3     1  UNL1       -0.2703
     30 C         142.9843  141.4877  169.8466 C.3     1  UNL1        0.0897
@<TRIPOS>BOND
     1    28    29    1
     2    29    30    1
     3    29    27    1
     4    27    26    1
     5    26    25    1
     6    25     1    1
     7     1     2   ar
     8     2     3   ar
     9     3     4   ar
    10     4     5   ar
    11     5     6   ar
    12     6    10    1
    13    10    11   ar
    14    11    12   ar
    15    12    13   ar
    16    13    17    1
    17    17    18    1
    18    18    19    1
    19    19    20   ar
    20    20    21   ar
    21    21    22   ar
    22    22    23   ar
    23    23    24   ar
    24    13    14   ar
    25    14    15   ar
    26    15    16    2
    27     6     7   ar
    28     7     8   ar
    29     8     9   ar
    30     9     1   ar
    31     9     4   ar
    32    15    10   ar
    33    24    19   ar
