@<TRIPOS>MOLECULE
*****
 42 47 0 0 0
SMALL
GASTEIGER

@<TRIPOS>ATOM
      1 C         137.7810  142.8852  163.1380 C.3     1  UNL1        0.0932
      2 C         137.6202  141.6631  163.9928 C.3     1  UNL1        0.0286
      3 C         137.6657  140.2999  163.3686 C.3     1  UNL1        0.0193
      4 C         137.8720  140.1588  161.8895 C.3     1  UNL1        0.0700
      5 C         138.0328  141.3809  161.0347 C.3     1  UNL1        0.0193
      6 C         137.9873  142.7441  161.6590 C.3     1  UNL1        0.0286
      7 C         137.8542  140.9266  162.1862 C.3     1  UNL1        0.1562
      8 O         137.8131  142.1593  162.7506 O.3     1  UNL1       -0.3572
      9 N         137.9175  138.7956  161.2653 N.3     1  UNL1       -0.2926
     10 H         137.3502  138.8403  160.4188 H       1  UNL1        0.1236
     11 C         139.2343  138.1941  160.8727 C.3     1  UNL1        0.1152
     12 C         140.4174  138.3172  161.7865 C.ar    1  UNL1        0.0765
     13 C         140.5457  137.4095  162.9739 C.ar    1  UNL1        0.0193
     14 C         141.7287  137.5326  163.8877 C.ar    1  UNL1        0.0411
     15 C         142.7835  138.5634  163.6143 C.ar    1  UNL1        0.1708
     16 C         142.6553  139.4711  162.4271 C.ar    1  UNL1        0.1682
     17 N         141.4722  139.3480  161.5132 N.ar    1  UNL1       -0.2304
     18 N         143.7102  140.5019  162.1537 N.am    1  UNL1       -0.2639
     19 C         144.8932  140.6251  163.0676 C.2     1  UNL1        0.2718
     20 O         145.9480  141.6559  162.7942 O.2     1  UNL1       -0.2707
     21 C         145.0215  139.7173  164.2549 C.3     1  UNL1        0.2898
     22 O         143.9666  138.6865  164.5283 O.3     1  UNL1       -0.4628
     23 H         143.6260  141.0977  161.3745 H       1  UNL1        0.1565
     24 C         137.7355  144.2483  163.7622 C.3     1  UNL1        0.0320
     25 C         138.8969  144.7408  164.5738 C.3     1  UNL1        0.0327
     26 C         141.4322  142.4707  167.5182 C.ar    1  UNL1        0.2249
     27 C         142.8292  142.0669  167.1502 C.ar    1  UNL1        0.0593
     28 C         143.3811  142.4198  165.8008 C.ar    1  UNL1        0.0254
     29 C         142.5360  143.1765  164.8194 C.ar    1  UNL1        0.0990
     30 N         143.0879  143.5294  163.4700 N.ar    1  UNL1       -0.2400
     31 C         142.2428  144.2861  162.4885 C.ar    1  UNL1        0.1281
     32 C         140.8458  144.6899  162.8565 C.ar    1  UNL1        0.1566
     33 F         140.0008  145.4466  161.8750 F       1  UNL1       -0.2028
     34 C         140.2939  144.3370  164.2059 C.ar    1  UNL1        0.0261
     35 C         141.1390  143.5803  165.1873 C.ar    1  UNL1        0.1002
     36 N         140.5871  143.2273  166.5367 N.ar    1  UNL1       -0.2104
     37 O         140.8803  142.1177  168.8675 O.3     1  UNL1       -0.4602
     38 C         139.6389  141.2827  168.9751 C.3     1  UNL1        0.2071
     39 C         139.6612  139.8466  168.5425 C.3     1  UNL1        0.0474
     40 C         140.0769  139.7391  165.9801 C.3     1  UNL1        0.0001
     41 C         139.1984  139.4708  167.1660 C.3     1  UNL1        0.0037
     42 C         137.8572  138.8267  166.9754 C.3     1  UNL1        0.0001
@<TRIPOS>BOND
     1    40    41    1
     2    41    42    1
     3    41    39    1
     4    39    38    1
     5    38    37    1
     6    37    26    1
     7    26    27   ar
     8    27    28   ar
     9    28    29   ar
    10    29    30   ar
    11    30    31   ar
    12    31    32   ar
    13    32    33    1
    14    32    34   ar
    15    34    25    1
    16    25    24    1
    17    24     1    1
    18     1     2    1
    19     2     3    1
    20     3     4    1
    21     4     9    1
    22     9    11    1
    23    11    12    1
    24    12    13   ar
    25    13    14   ar
    26    14    15   ar
    27    15    16   ar
    28    16    17   ar
    29    16    18    1
    30    18    19   am
    31    19    20    2
    32    19    21    1
    33    21    22    1
    34     4     5    1
    35     5     6    1
    36     4     7    1
    37     7     8    1
    38    34    35   ar
    39    35    36   ar
    40    36    26   ar
    41    35    29   ar
    42     6     1    1
    43     8     1    1
    44    17    12   ar
    45    22    15    1
    46     9    10    1
    47    18    23    1
@<TRIPOS>MOLECULE
*****
 42 47 0 0 0
SMALL
GASTEIGER

@<TRIPOS>ATOM
      1 C         137.8114  143.0006  162.8644 C.3     1  UNL1        0.0932
      2 C         138.0538  142.6961  161.4158 C.3     1  UNL1        0.0286
      3 C         138.0882  141.2726  160.9442 C.3     1  UNL1        0.0193
      4 C         137.8802  140.1535  161.9213 C.3     1  UNL1        0.0700
      5 C         137.6378  140.4581  163.3699 C.3     1  UNL1        0.0193
      6 C         137.6034  141.8817  163.8414 C.3     1  UNL1        0.0286
      7 C         137.8526  140.9176  162.2267 C.3     1  UNL1        0.1562
      8 O         137.8215  142.2048  162.6532 O.3     1  UNL1       -0.3572
      9 N         137.9146  138.7300  161.4497 N.3     1  UNL1       -0.2926
     10 H         137.3186  138.6791  160.6236 H       1  UNL1        0.1236
     11 C         139.2218  138.0936  161.0804 C.3     1  UNL1        0.1152
     12 C         140.4166  138.2633  161.9712 C.ar    1  UNL1        0.0765
     13 C         140.5603  137.4183  163.2023 C.ar    1  UNL1        0.0193
     14 C         141.7552  137.5879  164.0931 C.ar    1  UNL1        0.0411
     15 C         142.8064  138.6024  163.7529 C.ar    1  UNL1        0.1708
     16 C         142.6627  139.4473  162.5218 C.ar    1  UNL1        0.1682
     17 N         141.4678  139.2778  161.6310 N.ar    1  UNL1       -0.2304
     18 N         143.7139  140.4618  162.1816 N.am    1  UNL1       -0.2639
     19 C         144.9088  140.6314  163.0724 C.2     1  UNL1        0.2718
     20 O         145.9600  141.6459  162.7321 O.2     1  UNL1       -0.2707
     21 C         145.0525  139.7865  164.3035 C.3     1  UNL1        0.2898
     22 O         144.0013  138.7720  164.6437 O.3     1  UNL1       -0.4628
     23 H         143.6196  141.0164  161.3736 H       1  UNL1        0.1565
     24 C         137.7770  144.4241  163.3360 C.3     1  UNL1        0.0320
     25 C         138.9096  144.9710  164.1535 C.3     1  UNL1        0.0327
     26 C         141.0318  142.2600  167.0512 C.ar    1  UNL1        0.2249
     27 C         142.4384  141.8194  166.7734 C.ar    1  UNL1        0.0593
     28 C         143.1377  142.2824  165.5298 C.ar    1  UNL1        0.0254
     29 C         142.4303  143.1860  164.5639 C.ar    1  UNL1        0.0990
     30 N         143.1295  143.6490  163.3202 N.ar    1  UNL1       -0.2400
     31 C         142.4221  144.5526  162.3543 C.ar    1  UNL1        0.1281
     32 C         141.0154  144.9933  162.6321 C.ar    1  UNL1        0.1566
     33 F         140.3080  145.8970  161.6662 F       1  UNL1       -0.2028
     34 C         140.3162  144.5303  163.8757 C.ar    1  UNL1        0.0261
     35 C         141.0237  143.6266  164.8417 C.ar    1  UNL1        0.1002
     36 N         140.3244  143.1637  166.0853 N.ar    1  UNL1       -0.2104
     37 O         140.3326  141.7970  168.2949 O.3     1  UNL1       -0.4602
     38 C         140.3932  142.6273  169.5426 C.3     1  UNL1        0.2071
     39 C         141.3653  142.2772  170.6300 C.3     1  UNL1        0.0474
     40 C         142.7230  140.0867  170.3007 C.3     1  UNL1        0.0001
     41 C         142.6522  141.5850  170.2913 C.3     1  UNL1        0.0037
     42 C         143.8683  142.3911  169.9431 C.3     1  UNL1        0.0001
@<TRIPOS>BOND
     1    40    41    1
     2    41    42    1
     3    41    39    1
     4    39    38    1
     5    38    37    1
     6    37    26    1
     7    26    27   ar
     8    27    28   ar
     9    28    29   ar
    10    29    30   ar
    11    30    31   ar
    12    31    32   ar
    13    32    33    1
    14    32    34   ar
    15    34    25    1
    16    25    24    1
    17    24     1    1
    18     1     2    1
    19     2     3    1
    20     3     4    1
    21     4     9    1
    22     9    11    1
    23    11    12    1
    24    12    13   ar
    25    13    14   ar
    26    14    15   ar
    27    15    16   ar
    28    16    17   ar
    29    16    18    1
    30    18    19   am
    31    19    20    2
    32    19    21    1
    33    21    22    1
    34     4     5    1
    35     5     6    1
    36     4     7    1
    37     7     8    1
    38    34    35   ar
    39    35    36   ar
    40    36    26   ar
    41    35    29   ar
    42     6     1    1
    43     8     1    1
    44    17    12   ar
    45    22    15    1
    46     9    10    1
    47    18    23    1
@<TRIPOS>MOLECULE
*****
 42 47 0 0 0
SMALL
GASTEIGER

@<TRIPOS>ATOM
      1 C         141.9180  138.1206  163.8884 C.3     1  UNL1        0.0932
      2 C         142.8337  138.5571  164.9933 C.3     1  UNL1        0.0286
      3 C         144.0525  139.3730  164.6791 C.3     1  UNL1        0.0193
      4 C         144.3556  139.7525  163.2598 C.3     1  UNL1        0.0700
      5 C         143.4399  139.3160  162.1549 C.3     1  UNL1        0.0193
      6 C         142.2210  138.5001  162.4692 C.3     1  UNL1        0.0286
      7 C         143.6759  139.3044  163.3830 C.3     1  UNL1        0.1562
      8 O         142.5739  138.5666  163.6671 O.3     1  UNL1       -0.3572
      9 N         145.5744  140.5684  162.9456 N.3     1  UNL1       -0.2926
     10 H         145.6817  140.5587  161.9313 H       1  UNL1        0.1236
     11 C         145.6473  142.0038  163.3751 C.3     1  UNL1        0.1152
     12 C         144.4480  142.8926  163.2276 C.ar    1  UNL1        0.0765
     13 C         143.8134  143.5035  164.4418 C.ar    1  UNL1        0.0193
     14 C         142.6142  144.3923  164.2944 C.ar    1  UNL1        0.0411
     15 C         142.0494  144.6702  162.9329 C.ar    1  UNL1        0.1708
     16 C         142.6839  144.0593  161.7187 C.ar    1  UNL1        0.1682
     17 N         143.8832  143.1704  161.8661 N.ar    1  UNL1       -0.2304
     18 N         142.1191  144.3371  160.3572 N.am    1  UNL1       -0.2639
     19 C         140.9198  145.2259  160.2098 C.2     1  UNL1        0.2718
     20 O         140.3551  145.5038  158.8482 O.2     1  UNL1       -0.2707
     21 C         140.2853  145.8369  161.4239 C.3     1  UNL1        0.2898
     22 O         140.8501  145.5590  162.7855 O.3     1  UNL1       -0.4628
     23 H         142.5356  143.9362  159.5603 H       1  UNL1        0.1565
     24 C         140.6992  137.3047  164.2026 C.3     1  UNL1        0.0320
     25 C         139.4400  137.9817  164.6567 C.3     1  UNL1        0.0327
     26 C         139.9832  142.1631  166.2286 C.ar    1  UNL1        0.2249
     27 C         139.4397  143.3302  165.4590 C.ar    1  UNL1        0.0593
     28 C         138.7152  143.1035  164.1653 C.ar    1  UNL1        0.0254
     29 C         138.5341  141.7098  163.6413 C.ar    1  UNL1        0.0990
     30 N         137.8095  141.4831  162.3476 N.ar    1  UNL1       -0.2400
     31 C         137.6284  140.0894  161.8236 C.ar    1  UNL1        0.1281
     32 C         138.1719  138.9222  162.5933 C.ar    1  UNL1        0.1566
     33 F         137.9908  137.5284  162.0693 F       1  UNL1       -0.2028
     34 C         138.8965  139.1488  163.8870 C.ar    1  UNL1        0.0261
     35 C         139.0776  140.5427  164.4110 C.ar    1  UNL1        0.1002
     36 N         139.8021  140.7693  165.7046 N.ar    1  UNL1       -0.2104
     37 O         140.7078  142.3897  167.5223 O.3     1  UNL1       -0.4602
     38 C         142.1731  142.0860  167.6244 C.3     1  UNL1        0.2071
     39 C         142.6283  140.7268  168.0666 C.3     1  UNL1        0.0474
     40 C         142.5363  138.8734  169.8850 C.3     1  UNL1        0.0001
     41 C         142.4998  140.3243  169.5059 C.3     1  UNL1        0.0037
     42 C         142.3349  141.3726  170.5660 C.3     1  UNL1        0.0001
@<TRIPOS>BOND
     1    40    41    1
     2    41    42    1
     3    41    39    1
     4    39    38    1
     5    38    37    1
     6    37    26    1
     7    26    27   ar
     8    27    28   ar
     9    28    29   ar
    10    29    30   ar
    11    30    31   ar
    12    31    32   ar
    13    32    33    1
    14    32    34   ar
    15    34    25    1
    16    25    24    1
    17    24     1    1
    18     1     2    1
    19     2     3    1
    20     3     4    1
    21     4     9    1
    22     9    11    1
    23    11    12    1
    24    12    13   ar
    25    13    14   ar
    26    14    15   ar
    27    15    16   ar
    28    16    17   ar
    29    16    18    1
    30    18    19   am
    31    19    20    2
    32    19    21    1
    33    21    22    1
    34     4     5    1
    35     5     6    1
    36     4     7    1
    37     7     8    1
    38    34    35   ar
    39    35    36   ar
    40    36    26   ar
    41    35    29   ar
    42     6     1    1
    43     8     1    1
    44    17    12   ar
    45    22    15    1
    46     9    10    1
    47    18    23    1
@<TRIPOS>MOLECULE
*****
 42 47 0 0 0
SMALL
GASTEIGER

@<TRIPOS>ATOM
      1 C         137.9085  142.6561  163.8193 C.3     1  UNL1        0.0932
      2 C         137.7362  142.5201  162.3354 C.3     1  UNL1        0.0286
      3 C         137.7337  141.1604  161.7022 C.3     1  UNL1        0.0193
      4 C         137.9036  139.9365  162.5528 C.3     1  UNL1        0.0700
      5 C         138.0759  140.0726  164.0367 C.3     1  UNL1        0.0193
      6 C         138.0784  141.4324  164.6699 C.3     1  UNL1        0.0286
      7 C         137.9116  140.6604  162.9451 C.3     1  UNL1        0.1562
      8 O         137.9138  141.8900  163.5177 O.3     1  UNL1       -0.3572
      9 N         137.9011  138.5768  161.9196 N.3     1  UNL1       -0.2926
     10 H         137.1599  138.5797  161.2189 H       1  UNL1        0.1236
     11 C         139.1364  138.0631  161.2412 C.3     1  UNL1        0.1152
     12 C         140.4864  138.3341  161.8360 C.ar    1  UNL1        0.0765
     13 C         141.5877  138.8826  160.9778 C.ar    1  UNL1        0.0193
     14 C         142.9378  139.1536  161.5726 C.ar    1  UNL1        0.0411
     15 C         143.1867  138.8762  163.0255 C.ar    1  UNL1        0.1708
     16 C         142.0855  138.3277  163.8837 C.ar    1  UNL1        0.1682
     17 N         140.7353  138.0567  163.2889 N.ar    1  UNL1       -0.2304
     18 N         142.3344  138.0503  165.3367 N.am    1  UNL1       -0.2639
     19 C         143.6845  138.3213  165.9314 C.2     1  UNL1        0.2718
     20 O         143.9333  138.0438  167.3844 O.2     1  UNL1       -0.2707
     21 C         144.7857  138.8698  165.0732 C.3     1  UNL1        0.2898
     22 O         144.5368  139.1472  163.6203 O.3     1  UNL1       -0.4628
     23 H         141.6116  137.6903  165.8999 H       1  UNL1        0.1565
     24 C         137.9110  144.0159  164.4525 C.3     1  UNL1        0.0320
     25 C         139.2112  144.7029  164.7489 C.3     1  UNL1        0.0327
     26 C         142.9217  142.3619  165.7499 C.ar    1  UNL1        0.2249
     27 C         144.0505  142.2882  164.7648 C.ar    1  UNL1        0.0593
     28 C         143.9425  142.9949  163.4461 C.ar    1  UNL1        0.0254
     29 C         142.7057  143.7752  163.1125 C.ar    1  UNL1        0.0990
     30 N         142.5977  144.4818  161.7938 N.ar    1  UNL1       -0.2400
     31 C         141.3609  145.2622  161.4601 C.ar    1  UNL1        0.1281
     32 C         140.2320  145.3359  162.4452 C.ar    1  UNL1        0.1566
     33 F         138.9952  146.1162  162.1115 F       1  UNL1       -0.2028
     34 C         140.3400  144.6292  163.7639 C.ar    1  UNL1        0.0261
     35 C         141.5769  143.8488  164.0975 C.ar    1  UNL1        0.1002
     36 N         141.6849  143.1422  165.4162 N.ar    1  UNL1       -0.2104
     37 O         143.0297  141.6552  167.0686 O.3     1  UNL1       -0.4602
     38 C         143.3620  142.4296  168.3094 C.3     1  UNL1        0.2071
     39 C         142.4585  142.3551  169.5045 C.3     1  UNL1        0.0474
     40 C         140.0991  141.5942  168.7272 C.3     1  UNL1        0.0001
     41 C         140.9908  142.6253  169.3531 C.3     1  UNL1        0.0037
     42 C         140.4149  143.9265  169.8275 C.3     1  UNL1        0.0001
@<TRIPOS>BOND
     1    40    41    1
     2    41    42    1
     3    41    39    1
     4    39    38    1
     5    38    37    1
     6    37    26    1
     7    26    27   ar
     8    27    28   ar
     9    28    29   ar
    10    29    30   ar
    11    30    31   ar
    12    31    32   ar
    13    32    33    1
    14    32    34   ar
    15    34    25    1
    16    25    24    1
    17    24     1    1
    18     1     2    1
    19     2     3    1
    20     3     4    1
    21     4     9    1
    22     9    11    1
    23    11    12    1
    24    12    13   ar
    25    13    14   ar
    26    14    15   ar
    27    15    16   ar
    28    16    17   ar
    29    16    18    1
    30    18    19   am
    31    19    20    2
    32    19    21    1
    33    21    22    1
    34     4     5    1
    35     5     6    1
    36     4     7    1
    37     7     8    1
    38    34    35   ar
    39    35    36   ar
    40    36    26   ar
    41    35    29   ar
    42     6     1    1
    43     8     1    1
    44    17    12   ar
    45    22    15    1
    46     9    10    1
    47    18    23    1
@<TRIPOS>MOLECULE
*****
 42 47 0 0 0
SMALL
GASTEIGER

@<TRIPOS>ATOM
      1 C         145.0410  141.2592  163.5217 C.3     1  UNL1        0.0932
      2 C         144.7516  141.3041  162.0506 C.3     1  UNL1        0.0286
      3 C         144.1820  140.0999  161.3612 C.3     1  UNL1        0.0193
      4 C         143.9017  138.8507  162.1429 C.3     1  UNL1        0.0700
      5 C         144.1910  138.8059  163.6141 C.3     1  UNL1        0.0193
      6 C         144.7606  140.0102  164.3035 C.3     1  UNL1        0.0286
      7 C         144.2139  139.4854  162.5644 C.3     1  UNL1        0.1562
      8 O         144.7290  140.5743  163.1878 O.3     1  UNL1       -0.3572
      9 N         143.3320  137.6465  161.4535 N.3     1  UNL1       -0.2926
     10 H         143.2876  136.9023  162.1496 H       1  UNL1        0.1236
     11 C         141.9784  137.7202  160.8114 C.3     1  UNL1        0.1152
     12 C         140.8572  138.4354  161.5052 C.ar    1  UNL1        0.0765
     13 C         139.9918  137.7006  162.4857 C.ar    1  UNL1        0.0193
     14 C         138.8705  138.4158  163.1794 C.ar    1  UNL1        0.0411
     15 C         138.6146  139.8657  162.8926 C.ar    1  UNL1        0.1708
     16 C         139.4799  140.6005  161.9122 C.ar    1  UNL1        0.1682
     17 N         140.6012  139.8853  161.2184 N.ar    1  UNL1       -0.2304
     18 N         139.2240  142.0504  161.6255 N.am    1  UNL1       -0.2639
     19 C         138.1028  142.7656  162.3192 C.2     1  UNL1        0.2718
     20 O         137.8468  144.2155  162.0325 O.2     1  UNL1       -0.2707
     21 C         137.2374  142.0308  163.2997 C.3     1  UNL1        0.2898
     22 O         137.4933  140.5809  163.5864 O.3     1  UNL1       -0.4628
     23 H         139.7920  142.5326  160.9820 H       1  UNL1        0.1565
     24 C         145.6106  142.4635  164.2112 C.3     1  UNL1        0.0320
     25 C         144.7595  143.2596  165.1556 C.3     1  UNL1        0.0327
     26 C         141.5372  140.8588  167.1810 C.ar    1  UNL1        0.2249
     27 C         140.0952  141.1149  166.8568 C.ar    1  UNL1        0.0593
     28 C         139.7274  142.1713  165.8575 C.ar    1  UNL1        0.0254
     29 C         140.8014  142.9716  165.1824 C.ar    1  UNL1        0.0990
     30 N         140.4336  144.0281  164.1831 N.ar    1  UNL1       -0.2400
     31 C         141.5076  144.8283  163.5079 C.ar    1  UNL1        0.1281
     32 C         142.9497  144.5722  163.8321 C.ar    1  UNL1        0.1566
     33 F         144.0237  145.3725  163.1569 F       1  UNL1       -0.2028
     34 C         143.3175  143.5158  164.8314 C.ar    1  UNL1        0.0261
     35 C         142.2434  142.7155  165.5065 C.ar    1  UNL1        0.1002
     36 N         142.6113  141.6591  166.5059 N.ar    1  UNL1       -0.2104
     37 O         141.9051  139.8024  168.1803 O.3     1  UNL1       -0.4602
     38 C         141.3398  139.8540  169.5687 C.3     1  UNL1        0.2071
     39 C         141.8934  140.8258  170.5683 C.3     1  UNL1        0.0474
     40 C         143.8480  142.3617  169.8129 C.3     1  UNL1        0.0001
     41 C         142.3918  142.1660  170.1147 C.3     1  UNL1        0.0037
     42 C         141.4339  143.3103  169.9631 C.3     1  UNL1        0.0001
@<TRIPOS>BOND
     1    40    41    1
     2    41    42    1
     3    41    39    1
     4    39    38    1
     5    38    37    1
     6    37    26    1
     7    26    27   ar
     8    27    28   ar
     9    28    29   ar
    10    29    30   ar
    11    30    31   ar
    12    31    32   ar
    13    32    33    1
    14    32    34   ar
    15    34    25    1
    16    25    24    1
    17    24     1    1
    18     1     2    1
    19     2     3    1
    20     3     4    1
    21     4     9    1
    22     9    11    1
    23    11    12    1
    24    12    13   ar
    25    13    14   ar
    26    14    15   ar
    27    15    16   ar
    28    16    17   ar
    29    16    18    1
    30    18    19   am
    31    19    20    2
    32    19    21    1
    33    21    22    1
    34     4     5    1
    35     5     6    1
    36     4     7    1
    37     7     8    1
    38    34    35   ar
    39    35    36   ar
    40    36    26   ar
    41    35    29   ar
    42     6     1    1
    43     8     1    1
    44    17    12   ar
    45    22    15    1
    46     9    10    1
    47    18    23    1
@<TRIPOS>MOLECULE
*****
 42 47 0 0 0
SMALL
GASTEIGER

@<TRIPOS>ATOM
      1 C         138.4844  139.7971  164.6270 C.3     1  UNL1        0.0932
      2 C         137.6198  140.2657  163.4943 C.3     1  UNL1        0.0286
      3 C         137.4453  141.7339  163.2417 C.3     1  UNL1        0.0193
      4 C         138.1353  142.7336  164.1219 C.3     1  UNL1        0.0700
      5 C         138.9998  142.2650  165.2546 C.3     1  UNL1        0.0193
      6 C         139.1743  140.7967  165.5071 C.3     1  UNL1        0.0286
      7 C         138.2611  141.9395  164.2993 C.3     1  UNL1        0.1562
      8 O         138.4189  140.6119  164.5277 O.3     1  UNL1       -0.3572
      9 N         137.9608  144.2018  163.8693 N.3     1  UNL1       -0.2926
     10 H         138.1772  144.6789  164.7445 H       1  UNL1        0.1236
     11 C         138.7623  144.8789  162.7973 C.3     1  UNL1        0.1152
     12 C         140.2046  144.5182  162.5984 C.ar    1  UNL1        0.0765
     13 C         141.2473  145.0517  163.5356 C.ar    1  UNL1        0.0193
     14 C         142.6896  144.6909  163.3367 C.ar    1  UNL1        0.0411
     15 C         143.0893  143.7967  162.2006 C.ar    1  UNL1        0.1708
     16 C         142.0467  143.2632  161.2635 C.ar    1  UNL1        0.1682
     17 N         140.6043  143.6240  161.4624 N.ar    1  UNL1       -0.2304
     18 N         142.4463  142.3690  160.1274 N.am    1  UNL1       -0.2639
     19 C         143.8886  142.0083  159.9285 C.2     1  UNL1        0.2718
     20 O         144.2883  141.1141  158.7924 O.2     1  UNL1       -0.2707
     21 C         144.9314  142.5418  160.8657 C.3     1  UNL1        0.2898
     22 O         144.5317  143.4360  162.0018 O.3     1  UNL1       -0.4628
     23 H         141.7620  142.0189  159.5123 H       1  UNL1        0.1565
     24 C         138.6589  138.3289  164.8796 C.3     1  UNL1        0.0320
     25 C         139.4042  137.4812  163.8915 C.3     1  UNL1        0.0327
     26 C         143.2401  138.7724  165.8584 C.ar    1  UNL1        0.2249
     27 C         144.3402  139.3730  165.0344 C.ar    1  UNL1        0.0593
     28 C         144.1618  139.5431  163.5548 C.ar    1  UNL1        0.0254
     29 C         142.8832  139.1127  162.8992 C.ar    1  UNL1        0.0990
     30 N         142.7047  139.2829  161.4196 N.ar    1  UNL1       -0.2400
     31 C         141.4261  138.8525  160.7640 C.ar    1  UNL1        0.1281
     32 C         140.3259  138.2519  161.5880 C.ar    1  UNL1        0.1566
     33 F         139.0473  137.8215  160.9323 F       1  UNL1       -0.2028
     34 C         140.5043  138.0818  163.0676 C.ar    1  UNL1        0.0261
     35 C         141.7830  138.5122  163.7232 C.ar    1  UNL1        0.1002
     36 N         141.9615  138.3420  165.2028 N.ar    1  UNL1       -0.2104
     37 O         143.4185  138.6023  167.3380 O.3     1  UNL1       -0.4602
     38 C         142.6062  139.4277  168.2912 C.3     1  UNL1        0.2071
     39 C         142.9267  140.8799  168.4872 C.3     1  UNL1        0.0474
     40 C         140.9754  142.5885  168.3355 C.3     1  UNL1        0.0001
     41 C         142.1716  141.9247  167.7202 C.3     1  UNL1        0.0037
     42 C         142.6126  142.3058  166.3381 C.3     1  UNL1        0.0001
@<TRIPOS>BOND
     1    40    41    1
     2    41    42    1
     3    41    39    1
     4    39    38    1
     5    38    37    1
     6    37    26    1
     7    26    27   ar
     8    27    28   ar
     9    28    29   ar
    10    29    30   ar
    11    30    31   ar
    12    31    32   ar
    13    32    33    1
    14    32    34   ar
    15    34    25    1
    16    25    24    1
    17    24     1    1
    18     1     2    1
    19     2     3    1
    20     3     4    1
    21     4     9    1
    22     9    11    1
    23    11    12    1
    24    12    13   ar
    25    13    14   ar
    26    14    15   ar
    27    15    16   ar
    28    16    17   ar
    29    16    18    1
    30    18    19   am
    31    19    20    2
    32    19    21    1
    33    21    22    1
    34     4     5    1
    35     5     6    1
    36     4     7    1
    37     7     8    1
    38    34    35   ar
    39    35    36   ar
    40    36    26   ar
    41    35    29   ar
    42     6     1    1
    43     8     1    1
    44    17    12   ar
    45    22    15    1
    46     9    10    1
    47    18    23    1
@<TRIPOS>MOLECULE
*****
 42 47 0 0 0
SMALL
GASTEIGER

@<TRIPOS>ATOM
      1 C         143.8264  142.0136  163.7262 C.3     1  UNL1        0.0932
      2 C         142.9538  142.5836  164.8049 C.3     1  UNL1        0.0286
      3 C         142.1989  143.8572  164.5641 C.3     1  UNL1        0.0193
      4 C         142.3167  144.5609  163.2446 C.3     1  UNL1        0.0700
      5 C         143.1893  143.9909  162.1659 C.3     1  UNL1        0.0193
      6 C         143.9442  142.7172  162.4068 C.3     1  UNL1        0.0286
      7 C         142.7495  143.8657  163.3300 C.3     1  UNL1        0.1562
      8 O         143.4321  142.7140  163.5477 O.3     1  UNL1       -0.3572
      9 N         141.5618  145.8345  163.0038 N.3     1  UNL1       -0.2926
     10 H         142.1864  146.4539  162.4875 H       1  UNL1        0.1236
     11 C         140.2629  145.8062  162.2541 C.3     1  UNL1        0.1152
     12 C         139.4989  144.5218  162.1256 C.ar    1  UNL1        0.0765
     13 C         138.4772  144.1503  163.1591 C.ar    1  UNL1        0.0193
     14 C         137.7132  142.8659  163.0305 C.ar    1  UNL1        0.0411
     15 C         137.9709  141.9530  161.8686 C.ar    1  UNL1        0.1708
     16 C         138.9926  142.3245  160.8351 C.ar    1  UNL1        0.1682
     17 N         139.7566  143.6089  160.9636 N.ar    1  UNL1       -0.2304
     18 N         139.2503  141.4116  159.6731 N.am    1  UNL1       -0.2639
     19 C         138.4863  140.1272  159.5446 C.2     1  UNL1        0.2718
     20 O         138.7440  139.2142  158.3826 O.2     1  UNL1       -0.2707
     21 C         137.4645  139.7556  160.5781 C.3     1  UNL1        0.2898
     22 O         137.2068  140.6685  161.7401 O.3     1  UNL1       -0.4628
     23 H         139.9209  141.6554  158.9949 H       1  UNL1        0.1565
     24 C         144.5813  140.7399  163.9670 C.3     1  UNL1        0.0320
     25 C         143.8595  139.5230  164.4653 C.3     1  UNL1        0.0327
     26 C         139.7117  139.2392  166.1874 C.ar    1  UNL1        0.2249
     27 C         138.6018  138.6404  165.3752 C.ar    1  UNL1        0.0593
     28 C         138.8745  138.1363  163.9890 C.ar    1  UNL1        0.0254
     29 C         140.2571  138.2309  163.4150 C.ar    1  UNL1        0.0990
     30 N         140.5298  137.7268  162.0288 N.ar    1  UNL1       -0.2400
     31 C         141.9123  137.8214  161.4548 C.ar    1  UNL1        0.1281
     32 C         143.0223  138.4201  162.2670 C.ar    1  UNL1        0.1566
     33 F         144.4048  138.5147  161.6929 F       1  UNL1       -0.2028
     34 C         142.7496  138.9243  163.6532 C.ar    1  UNL1        0.0261
     35 C         141.3669  138.8296  164.2272 C.ar    1  UNL1        0.1002
     36 N         141.0943  139.3338  165.6133 N.ar    1  UNL1       -0.2104
     37 O         139.4390  139.7433  167.5736 O.3     1  UNL1       -0.4602
     38 C         140.5800  140.0917  168.4829 C.3     1  UNL1        0.2071
     39 C         140.4559  141.2451  169.4338 C.3     1  UNL1        0.0474
     40 C         140.4725  143.8074  169.8632 C.3     1  UNL1        0.0001
     41 C         140.4334  142.6503  168.9094 C.3     1  UNL1        0.0037
     42 C         140.3719  142.8984  167.4314 C.3     1  UNL1        0.0001
@<TRIPOS>BOND
     1    40    41    1
     2    41    42    1
     3    41    39    1
     4    39    38    1
     5    38    37    1
     6    37    26    1
     7    26    27   ar
     8    27    28   ar
     9    28    29   ar
    10    29    30   ar
    11    30    31   ar
    12    31    32   ar
    13    32    33    1
    14    32    34   ar
    15    34    25    1
    16    25    24    1
    17    24     1    1
    18     1     2    1
    19     2     3    1
    20     3     4    1
    21     4     9    1
    22     9    11    1
    23    11    12    1
    24    12    13   ar
    25    13    14   ar
    26    14    15   ar
    27    15    16   ar
    28    16    17   ar
    29    16    18    1
    30    18    19   am
    31    19    20    2
    32    19    21    1
    33    21    22    1
    34     4     5    1
    35     5     6    1
    36     4     7    1
    37     7     8    1
    38    34    35   ar
    39    35    36   ar
    40    36    26   ar
    41    35    29   ar
    42     6     1    1
    43     8     1    1
    44    17    12   ar
    45    22    15    1
    46     9    10    1
    47    18    23    1
@<TRIPOS>MOLECULE
*****
 42 47 0 0 0
SMALL
GASTEIGER

@<TRIPOS>ATOM
      1 C         139.1109  143.9398  163.1188 C.3     1  UNL1        0.0932
      2 C         139.8611  143.9315  164.4177 C.3     1  UNL1        0.0286
      3 C         141.2807  144.4134  164.4671 C.3     1  UNL1        0.0193
      4 C         141.9502  144.9036  163.2175 C.3     1  UNL1        0.0700
      5 C         141.2001  144.9118  161.9185 C.3     1  UNL1        0.0193
      6 C         139.7804  144.4299  161.8692 C.3     1  UNL1        0.0286
      7 C         141.1709  144.6492  163.1409 C.3     1  UNL1        0.1562
      8 O         139.8872  144.2135  163.0963 O.3     1  UNL1       -0.3572
      9 N         143.3698  145.3854  163.2668 N.3     1  UNL1       -0.2926
     10 H         143.6172  145.4723  164.2525 H       1  UNL1        0.1236
     11 C         144.4574  144.5827  162.6166 C.3     1  UNL1        0.1152
     12 C         144.3863  143.0844  162.6173 C.ar    1  UNL1        0.0765
     13 C         144.6698  142.3207  163.8769 C.ar    1  UNL1        0.0193
     14 C         144.5988  140.8224  163.8776 C.ar    1  UNL1        0.0411
     15 C         144.2442  140.0878  162.6188 C.ar    1  UNL1        0.1708
     16 C         143.9607  140.8514  161.3593 C.ar    1  UNL1        0.1682
     17 N         144.0318  142.3498  161.3585 N.ar    1  UNL1       -0.2304
     18 N         143.6061  140.1168  160.1005 N.am    1  UNL1       -0.2639
     19 C         143.5351  138.6185  160.1012 C.2     1  UNL1        0.2718
     20 O         143.1805  137.8838  158.8424 O.2     1  UNL1       -0.2707
     21 C         143.8186  137.8547  161.3607 C.3     1  UNL1        0.2898
     22 O         144.1732  138.5894  162.6195 O.3     1  UNL1       -0.4628
     23 H         143.4201  140.6180  159.2738 H       1  UNL1        0.1565
     24 C         137.6913  143.4579  163.0695 C.3     1  UNL1        0.0320
     25 C         137.3959  141.9881  163.1216 C.3     1  UNL1        0.0327
     26 C         139.8458  139.9554  166.3022 C.ar    1  UNL1        0.2249
     27 C         140.9027  138.9638  165.9154 C.ar    1  UNL1        0.0593
     28 C         141.1430  138.6498  164.4685 C.ar    1  UNL1        0.0254
     29 C         140.3265  139.3273  163.4083 C.ar    1  UNL1        0.0990
     30 N         140.5668  139.0133  161.9613 N.ar    1  UNL1       -0.2400
     31 C         139.7502  139.6908  160.9012 C.ar    1  UNL1        0.1281
     32 C         138.6932  140.6825  161.2879 C.ar    1  UNL1        0.1566
     33 F         137.8766  141.3600  160.2277 F       1  UNL1       -0.2028
     34 C         138.4529  140.9965  162.7348 C.ar    1  UNL1        0.0261
     35 C         139.2695  140.3189  163.7950 C.ar    1  UNL1        0.1002
     36 N         139.0292  140.6330  165.2420 N.ar    1  UNL1       -0.2104
     37 O         139.6055  140.2695  167.7491 O.3     1  UNL1       -0.4602
     38 C         140.7387  140.2019  168.7295 C.3     1  UNL1        0.2071
     39 C         141.3493  141.4659  169.2582 C.3     1  UNL1        0.0474
     40 C         143.7761  142.3136  169.6355 C.3     1  UNL1        0.0001
     41 C         142.6547  141.9565  168.7055 C.3     1  UNL1        0.0037
     42 C         142.8385  142.0901  167.2228 C.3     1  UNL1        0.0001
@<TRIPOS>BOND
     1    40    41    1
     2    41    42    1
     3    41    39    1
     4    39    38    1
     5    38    37    1
     6    37    26    1
     7    26    27   ar
     8    27    28   ar
     9    28    29   ar
    10    29    30   ar
    11    30    31   ar
    12    31    32   ar
    13    32    33    1
    14    32    34   ar
    15    34    25    1
    16    25    24    1
    17    24     1    1
    18     1     2    1
    19     2     3    1
    20     3     4    1
    21     4     9    1
    22     9    11    1
    23    11    12    1
    24    12    13   ar
    25    13    14   ar
    26    14    15   ar
    27    15    16   ar
    28    16    17   ar
    29    16    18    1
    30    18    19   am
    31    19    20    2
    32    19    21    1
    33    21    22    1
    34     4     5    1
    35     5     6    1
    36     4     7    1
    37     7     8    1
    38    34    35   ar
    39    35    36   ar
    40    36    26   ar
    41    35    29   ar
    42     6     1    1
    43     8     1    1
    44    17    12   ar
    45    22    15    1
    46     9    10    1
    47    18    23    1
@<TRIPOS>MOLECULE
*****
 42 47 0 0 0
SMALL
GASTEIGER

@<TRIPOS>ATOM
      1 C         139.8176  138.0342  164.4670 C.3     1  UNL1        0.0932
      2 C         139.6357  137.8633  162.9879 C.3     1  UNL1        0.0286
      3 C         140.8341  137.7521  162.0928 C.3     1  UNL1        0.0193
      4 C         142.2146  137.8117  162.6767 C.3     1  UNL1        0.0700
      5 C         142.3965  137.9826  164.1557 C.3     1  UNL1        0.0193
      6 C         141.1980  138.0938  165.0509 C.3     1  UNL1        0.0286
      7 C         141.5883  137.8772  163.2072 C.3     1  UNL1        0.1562
      8 O         140.5047  137.9777  164.0167 O.3     1  UNL1       -0.3572
      9 N         143.4130  137.7005  161.7815 N.3     1  UNL1       -0.2926
     10 H         143.2516  136.8989  161.1717 H       1  UNL1        0.1236
     11 C         143.7963  138.8485  160.8953 C.3     1  UNL1        0.1152
     12 C         143.6423  140.2579  161.3850 C.ar    1  UNL1        0.0765
     13 C         142.8391  141.2444  160.5902 C.ar    1  UNL1        0.0193
     14 C         142.6851  142.6539  161.0798 C.ar    1  UNL1        0.0411
     15 C         143.3342  143.0768  162.3642 C.ar    1  UNL1        0.1708
     16 C         144.1374  142.0903  163.1590 C.ar    1  UNL1        0.1682
     17 N         144.2915  140.6808  162.6694 N.ar    1  UNL1       -0.2304
     18 N         144.7865  142.5132  164.4434 N.am    1  UNL1       -0.2639
     19 C         144.6325  143.9226  164.9331 C.2     1  UNL1        0.2718
     20 O         145.2817  144.3456  166.2175 O.2     1  UNL1       -0.2707
     21 C         143.8293  144.9092  164.1383 C.3     1  UNL1        0.2898
     22 O         143.1802  144.4863  162.8538 O.3     1  UNL1       -0.4628
     23 H         145.3137  141.8657  164.9651 H       1  UNL1        0.1565
     24 C         138.6192  138.1454  165.3622 C.3     1  UNL1        0.0320
     25 C         138.0492  139.4941  165.6883 C.3     1  UNL1        0.0327
     26 C         138.4884  142.9515  162.8417 C.ar    1  UNL1        0.2249
     27 C         139.4036  144.0906  163.1808 C.ar    1  UNL1        0.0593
     28 C         140.1724  144.0771  164.4687 C.ar    1  UNL1        0.0254
     29 C         140.0260  142.9247  165.4176 C.ar    1  UNL1        0.0990
     30 N         140.7948  142.9112  166.7055 N.ar    1  UNL1       -0.2400
     31 C         140.6484  141.7588  167.6544 C.ar    1  UNL1        0.1281
     32 C         139.7332  140.6197  167.3153 C.ar    1  UNL1        0.1566
     33 F         139.5868  139.4672  168.2642 F       1  UNL1       -0.2028
     34 C         138.9644  140.6331  166.0274 C.ar    1  UNL1        0.0261
     35 C         139.1108  141.7856  165.0785 C.ar    1  UNL1        0.1002
     36 N         138.3420  141.7991  163.7906 N.ar    1  UNL1       -0.2104
     37 O         137.7196  142.9650  161.5538 O.3     1  UNL1       -0.4602
     38 C         138.3713  142.4970  160.2864 C.3     1  UNL1        0.2071
     39 C         138.9482  141.1147  160.2058 C.3     1  UNL1        0.0474
     40 C         139.9459  139.2185  158.7364 C.3     1  UNL1        0.0001
     41 C         139.6716  140.6750  158.9675 C.3     1  UNL1        0.0037
     42 C         140.1207  141.6917  157.9602 C.3     1  UNL1        0.0001
@<TRIPOS>BOND
     1    40    41    1
     2    41    42    1
     3    41    39    1
     4    39    38    1
     5    38    37    1
     6    37    26    1
     7    26    27   ar
     8    27    28   ar
     9    28    29   ar
    10    29    30   ar
    11    30    31   ar
    12    31    32   ar
    13    32    33    1
    14    32    34   ar
    15    34    25    1
    16    25    24    1
    17    24     1    1
    18     1     2    1
    19     2     3    1
    20     3     4    1
    21     4     9    1
    22     9    11    1
    23    11    12    1
    24    12    13   ar
    25    13    14   ar
    26    14    15   ar
    27    15    16   ar
    28    16    17   ar
    29    16    18    1
    30    18    19   am
    31    19    20    2
    32    19    21    1
    33    21    22    1
    34     4     5    1
    35     5     6    1
    36     4     7    1
    37     7     8    1
    38    34    35   ar
    39    35    36   ar
    40    36    26   ar
    41    35    29   ar
    42     6     1    1
    43     8     1    1
    44    17    12   ar
    45    22    15    1
    46     9    10    1
    47    18    23    1
