@<TRIPOS>MOLECULE
*****
 22 24 0 0 0
SMALL
GASTEIGER

@<TRIPOS>ATOM
      1 C         138.3088  139.4915  165.8131 C.2     1  UNL1        0.1040
      2 N         137.4304  138.6157  166.6565 N.2     1  UNL1       -0.1483
      3 N         137.8456  138.7840  168.0880 N.2     1  UNL1       -0.1519
      4 C         138.9806  139.7638  168.1294 C.2     1  UNL1        0.0896
      5 C         139.7904  140.3143  169.2656 C.3     1  UNL1        0.1117
      6 C         140.8866  141.3020  168.9959 C.2     1  UNL1        0.1303
      7 C         141.1729  141.7392  167.5899 C.2     1  UNL1        0.0331
      8 C         140.3631  141.1887  166.4536 C.2     1  UNL1        0.0056
      9 C         139.2669  140.2010  166.7234 C.2     1  UNL1        0.0352
     10 C         138.1057  139.9156  161.3377 C.ar    1  UNL1        0.0684
     11 C         137.6788  141.0519  162.2189 C.ar    1  UNL1        0.0103
     12 C         137.7465  140.9105  163.7107 C.ar    1  UNL1        0.0022
     13 C         138.2411  139.6329  164.3213 C.ar    1  UNL1        0.0195
     14 C         138.6681  138.4965  163.4400 C.ar    1  UNL1        0.0022
     15 C         138.6004  138.6379  161.9482 C.ar    1  UNL1        0.0103
     16 N         137.9704  140.1984  158.3542 N.1     1  UNL1       -0.1908
     17 C         138.0380  140.0570  159.8459 C.1     1  UNL1        0.1004
     18 O         141.6965  141.8525  170.1321 O.2     1  UNL1       -0.4085
     19 C         143.1383  142.2089  169.9219 C.3     1  UNL1        0.5750
     20 F         144.5801  142.5653  169.7117 F       1  UNL1       -0.1328
     21 F         142.8326  143.6399  170.2517 F       1  UNL1       -0.1328
     22 F         143.4439  140.7779  169.5920 F       1  UNL1       -0.1328
@<TRIPOS>BOND
     1    16    17    3
     2    17    10    1
     3    10    11   ar
     4    11    12   ar
     5    12    13   ar
     6    13     1    1
     7     1     2    2
     8     2     3    1
     9     3     4    2
    10     4     5    1
    11     5     6    1
    12     6    18    1
    13    18    19    1
    14    19    20    1
    15    19    21    1
    16    19    22    1
    17     6     7    2
    18     7     8    1
    19     8     9    2
    20    13    14   ar
    21    14    15   ar
    22    15    10   ar
    23     9     1    1
    24     9     4    1
@<TRIPOS>MOLECULE
*****
 22 24 0 0 0
SMALL
GASTEIGER

@<TRIPOS>ATOM
      1 C         138.3929  139.0795  165.6426 C.2     1  UNL1        0.1040
      2 N         137.5012  138.1661  166.4302 N.2     1  UNL1       -0.1483
      3 N         137.6949  138.4712  167.8860 N.2     1  UNL1       -0.1519
      4 C         138.7063  139.5732  167.9981 C.2     1  UNL1        0.0896
      5 C         139.2901  140.2829  169.1836 C.3     1  UNL1        0.1117
      6 C         140.3054  141.3686  168.9825 C.2     1  UNL1        0.1303
      7 C         140.7368  141.7446  167.5960 C.2     1  UNL1        0.0331
      8 C         140.1530  141.0349  166.4105 C.2     1  UNL1        0.0056
      9 C         139.1377  139.9492  166.6116 C.2     1  UNL1        0.0352
     10 C         138.7680  139.1913  161.1596 C.ar    1  UNL1        0.0684
     11 C         138.1333  140.3386  161.8879 C.ar    1  UNL1        0.0103
     12 C         138.0082  140.3014  163.3823 C.ar    1  UNL1        0.0022
     13 C         138.5179  139.1168  164.1482 C.ar    1  UNL1        0.0195
     14 C         139.1528  137.9693  163.4199 C.ar    1  UNL1        0.0022
     15 C         139.2778  138.0066  161.9255 C.ar    1  UNL1        0.0103
     16 N         139.0182  139.2657  158.1710 N.1     1  UNL1       -0.1908
     17 C         138.8931  139.2285  159.6652 C.1     1  UNL1        0.1004
     18 O         140.8893  142.0784  170.1680 O.2     1  UNL1       -0.4085
     19 C         140.8000  143.5725  170.2664 C.3     1  UNL1        0.5750
     20 F         140.7108  145.0666  170.3648 F       1  UNL1       -0.1328
     21 F         142.2428  143.6847  169.8718 F       1  UNL1       -0.1328
     22 F         139.3572  143.4603  170.6610 F       1  UNL1       -0.1328
@<TRIPOS>BOND
     1    16    17    3
     2    17    10    1
     3    10    11   ar
     4    11    12   ar
     5    12    13   ar
     6    13     1    1
     7     1     2    2
     8     2     3    1
     9     3     4    2
    10     4     5    1
    11     5     6    1
    12     6    18    1
    13    18    19    1
    14    19    20    1
    15    19    21    1
    16    19    22    1
    17     6     7    2
    18     7     8    1
    19     8     9    2
    20    13    14   ar
    21    14    15   ar
    22    15    10   ar
    23     9     1    1
    24     9     4    1
@<TRIPOS>MOLECULE
*****
 22 24 0 0 0
SMALL
GASTEIGER

@<TRIPOS>ATOM
      1 C         139.5905  138.7340  165.3572 C.2     1  UNL1        0.1040
      2 N         138.3011  138.1056  165.7961 N.2     1  UNL1       -0.1483
      3 N         137.9974  138.5909  167.1825 N.2     1  UNL1       -0.1519
      4 C         139.0991  139.5192  167.6005 C.2     1  UNL1        0.0896
      5 C         139.3329  140.2954  168.8625 C.3     1  UNL1        0.1117
      6 C         140.5513  141.1599  168.9964 C.2     1  UNL1        0.1303
      7 C         141.5359  141.2484  167.8682 C.2     1  UNL1        0.0331
      8 C         141.3021  140.4722  166.6062 C.2     1  UNL1        0.0056
      9 C         140.0837  139.6076  166.4723 C.2     1  UNL1        0.0352
     10 C         141.6224  138.1081  161.3910 C.ar    1  UNL1        0.0684
     11 C         142.4074  137.9867  162.6634 C.ar    1  UNL1        0.0103
     12 C         141.7301  138.1954  163.9854 C.ar    1  UNL1        0.0022
     13 C         140.2678  138.5254  164.0351 C.ar    1  UNL1        0.0195
     14 C         139.4827  138.6467  162.7627 C.ar    1  UNL1        0.0022
     15 C         140.1600  138.4381  161.4407 C.ar    1  UNL1        0.0103
     16 N         142.9770  137.6910  158.7470 N.1     1  UNL1       -0.1908
     17 C         142.2997  137.8995  160.0690 C.1     1  UNL1        0.1004
     18 O         140.7852  141.9362  170.2585 O.2     1  UNL1       -0.4085
     19 C         140.4717  143.4023  170.3063 C.3     1  UNL1        0.5750
     20 F         140.1582  144.8684  170.3541 F       1  UNL1       -0.1328
     21 F         141.8610  143.7147  169.8350 F       1  UNL1       -0.1328
     22 F         139.0824  143.0898  170.7776 F       1  UNL1       -0.1328
@<TRIPOS>BOND
     1    16    17    3
     2    17    10    1
     3    10    11   ar
     4    11    12   ar
     5    12    13   ar
     6    13     1    1
     7     1     2    2
     8     2     3    1
     9     3     4    2
    10     4     5    1
    11     5     6    1
    12     6    18    1
    13    18    19    1
    14    19    20    1
    15    19    21    1
    16    19    22    1
    17     6     7    2
    18     7     8    1
    19     8     9    2
    20    13    14   ar
    21    14    15   ar
    22    15    10   ar
    23     9     1    1
    24     9     4    1
@<TRIPOS>MOLECULE
*****
 22 24 0 0 0
SMALL
GASTEIGER

@<TRIPOS>ATOM
      1 C         139.3380  140.0249  164.9604 C.2     1  UNL1        0.1040
      2 N         138.0381  140.1414  164.2209 N.2     1  UNL1       -0.1483
      3 N         138.2353  139.5768  162.8453 N.2     1  UNL1       -0.1519
      4 C         139.6570  139.1114  162.7345 C.2     1  UNL1        0.0896
      5 C         140.4190  138.4712  161.6123 C.3     1  UNL1        0.1117
      6 C         141.8625  138.1080  161.7973 C.2     1  UNL1        0.1303
      7 C         142.5440  138.3849  163.1045 C.2     1  UNL1        0.0331
      8 C         141.7820  139.0251  164.2267 C.2     1  UNL1        0.0056
      9 C         140.3385  139.3883  164.0418 C.2     1  UNL1        0.0352
     10 C         140.1021  141.3521  169.1918 C.ar    1  UNL1        0.0684
     11 C         139.3547  140.0785  168.9286 C.ar    1  UNL1        0.0103
     12 C         139.1000  139.6361  167.5181 C.ar    1  UNL1        0.0022
     13 C         139.5927  140.4673  166.3708 C.ar    1  UNL1        0.0195
     14 C         140.3401  141.7410  166.6340 C.ar    1  UNL1        0.0022
     15 C         140.5948  142.1834  168.0445 C.ar    1  UNL1        0.0103
     16 N         140.6114  142.2370  172.0127 N.1     1  UNL1       -0.1908
     17 C         140.3568  141.7945  170.6023 C.1     1  UNL1        0.1004
     18 O         142.6246  137.4678  160.6750 O.2     1  UNL1       -0.4085
     19 C         143.0294  138.2828  159.4826 C.3     1  UNL1        0.5750
     20 F         143.4343  139.0978  158.2902 F       1  UNL1       -0.1328
     21 F         141.8780  137.7173  158.7051 F       1  UNL1       -0.1328
     22 F         144.1808  138.8483  160.2601 F       1  UNL1       -0.1328
@<TRIPOS>BOND
     1    16    17    3
     2    17    10    1
     3    10    11   ar
     4    11    12   ar
     5    12    13   ar
     6    13     1    1
     7     1     2    2
     8     2     3    1
     9     3     4    2
    10     4     5    1
    11     5     6    1
    12     6    18    1
    13    18    19    1
    14    19    20    1
    15    19    21    1
    16    19    22    1
    17     6     7    2
    18     7     8    1
    19     8     9    2
    20    13    14   ar
    21    14    15   ar
    22    15    10   ar
    23     9     1    1
    24     9     4    1
@<TRIPOS>MOLECULE
*****
 22 24 0 0 0
SMALL
GASTEIGER

@<TRIPOS>ATOM
      1 C         142.8871  138.9362  165.1737 C.2     1  UNL1        0.1040
      2 N         143.5898  138.1201  166.2177 N.2     1  UNL1       -0.1483
      3 N         143.3107  138.7391  167.5552 N.2     1  UNL1       -0.1519
      4 C         142.4355  139.9378  167.3378 C.2     1  UNL1        0.0896
      5 C         141.8432  140.9340  168.2899 C.3     1  UNL1        0.1117
      6 C         140.9890  142.0521  167.7701 C.2     1  UNL1        0.1303
      7 C         140.7272  142.1739  166.2982 C.2     1  UNL1        0.0331
      8 C         141.3195  141.1777  165.3461 C.2     1  UNL1        0.0056
      9 C         142.1737  140.0596  165.8659 C.2     1  UNL1        0.0352
     10 C         142.9142  138.1522  160.7425 C.ar    1  UNL1        0.0684
     11 C         141.7372  137.7312  161.5715 C.ar    1  UNL1        0.0103
     12 C         141.7281  137.9925  163.0485 C.ar    1  UNL1        0.0022
     13 C         142.8961  138.6749  163.6966 C.ar    1  UNL1        0.0195
     14 C         144.0732  139.0960  162.8676 C.ar    1  UNL1        0.0022
     15 C         144.0823  138.8346  161.3906 C.ar    1  UNL1        0.0103
     16 N         142.9324  137.6295  157.7885 N.1     1  UNL1       -0.1908
     17 C         142.9233  137.8909  159.2655 C.1     1  UNL1        0.1004
     18 O         140.3966  143.0484  168.7223 O.2     1  UNL1       -0.4085
     19 C         140.4099  142.7759  170.1972 C.3     1  UNL1        0.5750
     20 F         140.4231  142.5033  171.6722 F       1  UNL1       -0.1328
     21 F         139.1896  141.9161  170.0493 F       1  UNL1       -0.1328
     22 F         141.6301  143.6356  170.3451 F       1  UNL1       -0.1328
@<TRIPOS>BOND
     1    16    17    3
     2    17    10    1
     3    10    11   ar
     4    11    12   ar
     5    12    13   ar
     6    13     1    1
     7     1     2    2
     8     2     3    1
     9     3     4    2
    10     4     5    1
    11     5     6    1
    12     6    18    1
    13    18    19    1
    14    19    20    1
    15    19    21    1
    16    19    22    1
    17     6     7    2
    18     7     8    1
    19     8     9    2
    20    13    14   ar
    21    14    15   ar
    22    15    10   ar
    23     9     1    1
    24     9     4    1
@<TRIPOS>MOLECULE
*****
 22 24 0 0 0
SMALL
GASTEIGER

@<TRIPOS>ATOM
      1 C         140.4224  138.5741  164.9823 C.2     1  UNL1        0.1040
      2 N         141.1389  137.3111  164.6063 N.2     1  UNL1       -0.1483
      3 N         140.8134  137.0020  163.1751 N.2     1  UNL1       -0.1519
      4 C         139.8957  138.0740  162.6664 C.2     1  UNL1        0.0896
      5 C         139.2489  138.2909  161.3306 C.3     1  UNL1        0.1117
      6 C         138.3605  139.4795  161.1116 C.2     1  UNL1        0.1303
      7 C         138.1188  140.4511  162.2286 C.2     1  UNL1        0.0331
      8 C         138.7656  140.2342  163.5644 C.2     1  UNL1        0.0056
      9 C         139.6540  139.0457  163.7834 C.2     1  UNL1        0.0352
     10 C         140.5545  140.5942  169.0013 C.ar    1  UNL1        0.0684
     11 C         141.8161  140.4154  168.2098 C.ar    1  UNL1        0.0103
     12 C         141.7720  139.7421  166.8702 C.ar    1  UNL1        0.0022
     13 C         140.4665  139.2475  166.3219 C.ar    1  UNL1        0.0195
     14 C         139.2048  139.4263  167.1134 C.ar    1  UNL1        0.0022
     15 C         139.2488  140.0996  168.4530 C.ar    1  UNL1        0.0103
     16 N         140.6426  141.9408  171.6806 N.1     1  UNL1       -0.1908
     17 C         140.5986  141.2676  170.3409 C.1     1  UNL1        0.1004
     18 O         137.7136  139.6964  159.7757 O.2     1  UNL1       -0.4085
     19 C         138.4644  140.4004  158.6844 C.3     1  UNL1        0.5750
     20 F         139.2151  141.1043  157.5931 F       1  UNL1       -0.1328
     21 F         137.9687  141.7208  159.1952 F       1  UNL1       -0.1328
     22 F         138.9600  139.0799  158.1737 F       1  UNL1       -0.1328
@<TRIPOS>BOND
     1    16    17    3
     2    17    10    1
     3    10    11   ar
     4    11    12   ar
     5    12    13   ar
     6    13     1    1
     7     1     2    2
     8     2     3    1
     9     3     4    2
    10     4     5    1
    11     5     6    1
    12     6    18    1
    13    18    19    1
    14    19    20    1
    15    19    21    1
    16    19    22    1
    17     6     7    2
    18     7     8    1
    19     8     9    2
    20    13    14   ar
    21    14    15   ar
    22    15    10   ar
    23     9     1    1
    24     9     4    1
@<TRIPOS>MOLECULE
*****
 22 24 0 0 0
SMALL
GASTEIGER

@<TRIPOS>ATOM
      1 C         143.2799  142.5645  165.0163 C.2     1  UNL1        0.1040
      2 N         143.8213  143.7975  164.3556 N.2     1  UNL1       -0.1483
      3 N         144.3091  143.4152  162.9897 N.2     1  UNL1       -0.1519
      4 C         144.0692  141.9460  162.8061 C.2     1  UNL1        0.0896
      5 C         144.3477  141.0189  161.6603 C.3     1  UNL1        0.1117
      6 C         143.9902  139.5661  161.7670 C.2     1  UNL1        0.1303
      7 C         143.3541  139.0403  163.0196 C.2     1  UNL1        0.0331
      8 C         143.0756  139.9673  164.1654 C.2     1  UNL1        0.0056
      9 C         143.4331  141.4201  164.0587 C.2     1  UNL1        0.0352
     10 C         141.5073  142.3380  169.1463 C.ar    1  UNL1        0.0684
     11 C         140.6088  142.4101  167.9474 C.ar    1  UNL1        0.0103
     12 C         141.1997  142.4856  166.5708 C.ar    1  UNL1        0.0022
     13 C         142.6890  142.4890  166.3930 C.ar    1  UNL1        0.0195
     14 C         143.5876  142.4168  167.5919 C.ar    1  UNL1        0.0022
     15 C         142.9968  142.3413  168.9686 C.ar    1  UNL1        0.0103
     16 N         140.3255  142.1868  171.8996 N.1     1  UNL1       -0.1908
     17 C         140.9165  142.2625  170.5230 C.1     1  UNL1        0.1004
     18 O         144.2688  138.6390  160.6211 O.2     1  UNL1       -0.4085
     19 C         143.1756  138.2920  159.6543 C.3     1  UNL1        0.5750
     20 F         142.0825  137.9450  158.6876 F       1  UNL1       -0.1328
     21 F         143.5983  139.4268  158.7691 F       1  UNL1       -0.1328
     22 F         142.7530  137.1572  160.5396 F       1  UNL1       -0.1328
@<TRIPOS>BOND
     1    16    17    3
     2    17    10    1
     3    10    11   ar
     4    11    12   ar
     5    12    13   ar
     6    13     1    1
     7     1     2    2
     8     2     3    1
     9     3     4    2
    10     4     5    1
    11     5     6    1
    12     6    18    1
    13    18    19    1
    14    19    20    1
    15    19    21    1
    16    19    22    1
    17     6     7    2
    18     7     8    1
    19     8     9    2
    20    13    14   ar
    21    14    15   ar
    22    15    10   ar
    23     9     1    1
    24     9     4    1
@<TRIPOS>MOLECULE
*****
 22 24 0 0 0
SMALL
GASTEIGER

@<TRIPOS>ATOM
      1 C         142.4387  142.4103  164.6342 C.2     1  UNL1        0.1040
      2 N         143.4204  141.5436  163.9027 N.2     1  UNL1       -0.1483
      3 N         143.4161  141.9543  162.4600 N.2     1  UNL1       -0.1519
      4 C         142.4318  143.0747  162.2999 C.2     1  UNL1        0.0896
      5 C         142.0075  143.8747  161.1041 C.3     1  UNL1        0.1117
      6 C         140.9791  144.9566  161.2520 C.2     1  UNL1        0.1303
      7 C         140.3750  145.2385  162.5958 C.2     1  UNL1        0.0331
      8 C         140.7993  144.4385  163.7915 C.2     1  UNL1        0.0056
      9 C         141.8277  143.3566  163.6436 C.2     1  UNL1        0.0352
     10 C         141.4925  142.2073  169.0289 C.ar    1  UNL1        0.0684
     11 C         142.9178  142.3074  168.5725 C.ar    1  UNL1        0.0103
     12 C         143.2332  142.3751  167.1075 C.ar    1  UNL1        0.0022
     13 C         142.1233  142.3427  166.0991 C.ar    1  UNL1        0.0195
     14 C         140.6979  142.2426  166.5556 C.ar    1  UNL1        0.0022
     15 C         140.3825  142.1749  168.0205 C.ar    1  UNL1        0.0103
     16 N         140.8617  142.0719  171.9587 N.1     1  UNL1       -0.1908
     17 C         141.1771  142.1396  170.4938 C.1     1  UNL1        0.1004
     18 O         140.5548  145.7567  160.0562 O.2     1  UNL1       -0.4085
     19 C         140.7258  145.1922  158.6771 C.3     1  UNL1        0.5750
     20 F         140.8969  144.6277  157.2979 F       1  UNL1       -0.1328
     21 F         141.9145  146.0811  158.4606 F       1  UNL1       -0.1328
     22 F         139.5372  144.3032  158.8935 F       1  UNL1       -0.1328
@<TRIPOS>BOND
     1    16    17    3
     2    17    10    1
     3    10    11   ar
     4    11    12   ar
     5    12    13   ar
     6    13     1    1
     7     1     2    2
     8     2     3    1
     9     3     4    2
    10     4     5    1
    11     5     6    1
    12     6    18    1
    13    18    19    1
    14    19    20    1
    15    19    21    1
    16    19    22    1
    17     6     7    2
    18     7     8    1
    19     8     9    2
    20    13    14   ar
    21    14    15   ar
    22    15    10   ar
    23     9     1    1
    24     9     4    1
@<TRIPOS>MOLECULE
*****
 22 24 0 0 0
SMALL
GASTEIGER

@<TRIPOS>ATOM
      1 C         142.3961  143.3261  164.3730 C.2     1  UNL1        0.1040
      2 N         143.7471  143.5198  164.9951 N.2     1  UNL1       -0.1483
      3 N         143.7610  142.7947  166.3082 N.2     1  UNL1       -0.1519
      4 C         142.4185  142.1529  166.4975 C.2     1  UNL1        0.0896
      5 C         141.8552  141.3119  167.6044 C.3     1  UNL1        0.1117
      6 C         140.4483  140.7993  167.5153 C.2     1  UNL1        0.1303
      7 C         139.6048  141.1278  166.3193 C.2     1  UNL1        0.0331
      8 C         140.1681  141.9688  165.2123 C.2     1  UNL1        0.0056
      9 C         141.5749  142.4813  165.3014 C.2     1  UNL1        0.0352
     10 C         141.0437  144.9876  160.4156 C.ar    1  UNL1        0.0684
     11 C         140.4884  145.5456  161.6924 C.ar    1  UNL1        0.0103
     12 C         140.9392  144.9917  163.0115 C.ar    1  UNL1        0.0022
     13 C         141.9453  143.8800  163.0539 C.ar    1  UNL1        0.0195
     14 C         142.5006  143.3220  161.7769 C.ar    1  UNL1        0.0022
     15 C         142.0498  143.8759  160.4578 C.ar    1  UNL1        0.0103
     16 N         140.1420  146.0954  157.7775 N.1     1  UNL1       -0.1908
     17 C         140.5929  145.5415  159.0965 C.1     1  UNL1        0.1004
     18 O         139.8850  139.9582  168.6223 O.2     1  UNL1       -0.4085
     19 C         140.1953  140.2933  170.0511 C.3     1  UNL1        0.5750
     20 F         140.5056  140.6284  171.4799 F       1  UNL1       -0.1328
     21 F         139.2171  141.4292  169.9971 F       1  UNL1       -0.1328
     22 F         141.1735  139.1575  170.1050 F       1  UNL1       -0.1328
@<TRIPOS>BOND
     1    16    17    3
     2    17    10    1
     3    10    11   ar
     4    11    12   ar
     5    12    13   ar
     6    13     1    1
     7     1     2    2
     8     2     3    1
     9     3     4    2
    10     4     5    1
    11     5     6    1
    12     6    18    1
    13    18    19    1
    14    19    20    1
    15    19    21    1
    16    19    22    1
    17     6     7    2
    18     7     8    1
    19     8     9    2
    20    13    14   ar
    21    14    15   ar
    22    15    10   ar
    23     9     1    1
    24     9     4    1
