@<TRIPOS>MOLECULE
*****
 35 37 0 0 0
SMALL
GASTEIGER

@<TRIPOS>ATOM
      1 C         144.8452  140.3989  163.8022 C.3     1  UNL1        0.0944
      2 N         144.1000  140.4999  165.1001 N.am    1  UNL1       -0.3005
      3 C         142.9057  139.6272  165.3491 C.2     1  UNL1        0.2474
      4 O         142.4566  138.6534  164.3003 O.2     1  UNL1       -0.2701
      5 H         144.3947  141.1390  165.7885 H       1  UNL1        0.1498
      6 C         142.1605  139.7282  166.6469 C.ar    1  UNL1        0.0725
      7 C         140.7367  140.2003  166.6595 C.ar    1  UNL1        0.0074
      8 C         139.9915  140.3014  167.9574 C.ar    1  UNL1        0.0174
      9 C         140.6700  139.9304  169.2427 C.ar    1  UNL1        0.0888
     10 N         142.0937  139.4583  169.2301 N.ar    1  UNL1       -0.2455
     11 C         142.8390  139.3573  167.9322 C.ar    1  UNL1        0.1030
     12 C         139.9249  140.0314  170.5405 C.3     1  UNL1        0.1878
     13 O         140.3969  140.9773  171.6048 O.3     1  UNL1       -0.3391
     14 C         141.1412  142.2229  171.2247 C.3     1  UNL1        0.2462
     15 C         140.5899  143.1329  170.1674 C.3     1  UNL1        0.4248
     16 F         140.0385  144.0430  169.1102 F       1  UNL1       -0.1674
     17 F         141.8705  143.0126  169.3958 F       1  UNL1       -0.1674
     18 F         139.3092  143.2533  170.9389 F       1  UNL1       -0.1674
     19 C         145.1644  141.6396  163.0221 C.3     1  UNL1        0.0500
     20 C         143.2257  142.8543  161.7909 C.ar    1  UNL1        0.0449
     21 C         142.2300  143.9741  161.7224 C.ar    1  UNL1        0.1414
     22 F         141.2869  144.0691  160.5598 F       1  UNL1       -0.2041
     23 C         142.1774  144.9989  162.8165 C.ar    1  UNL1        0.0320
     24 C         143.1204  144.9040  163.9791 C.ar    1  UNL1        0.0316
     25 C         144.1160  143.7843  164.0476 C.ar    1  UNL1        0.1364
     26 F         145.0591  143.6893  165.2102 F       1  UNL1       -0.2045
     27 C         144.1687  142.7594  162.9535 C.ar    1  UNL1        0.0107
     28 C         143.3836  139.7799  158.5088 C.ar    1  UNL1        0.2449
     29 C         144.2110  141.0270  158.4087 C.ar    1  UNL1        0.1564
     30 N         144.1583  142.0518  159.5027 N.ar    1  UNL1       -0.2373
     31 C         143.2783  141.8295  160.6969 C.ar    1  UNL1        0.1026
     32 C         142.4509  140.5824  160.7970 C.ar    1  UNL1        0.1212
     33 N         142.5036  139.5576  159.7030 N.ar    1  UNL1       -0.2072
     34 C         142.6744  137.4704  157.5532 C.3     1  UNL1        0.2543
     35 O         143.4363  138.7550  157.4147 O.3     1  UNL1       -0.4551
@<TRIPOS>BOND
     1    34    35    1
     2    35    28    1
     3    28    29   ar
     4    29    30   ar
     5    30    31   ar
     6    31    20    1
     7    20    21   ar
     8    21    22    1
     9    21    23   ar
    10    23    24   ar
    11    24    25   ar
    12    25    26    1
    13    25    27   ar
    14    27    19    1
    15    19     1    1
    16     1     2    1
    17     2     3   am
    18     3     4    2
    19     3     6    1
    20     6     7   ar
    21     7     8   ar
    22     8     9   ar
    23     9    12    1
    24    12    13    1
    25    13    14    1
    26    14    15    1
    27    15    16    1
    28    15    17    1
    29    15    18    1
    30     9    10   ar
    31    10    11   ar
    32    31    32   ar
    33    32    33   ar
    34    33    28   ar
    35    27    20   ar
    36    11     6   ar
    37     2     5    1
@<TRIPOS>MOLECULE
*****
 35 37 0 0 0
SMALL
GASTEIGER

@<TRIPOS>ATOM
      1 C         140.3753  139.9632  161.8894 C.3     1  UNL1        0.0944
      2 N         140.2425  140.2568  163.3544 N.am    1  UNL1       -0.3005
      3 C         140.2843  139.1362  164.3506 C.2     1  UNL1        0.2474
      4 O         140.4589  137.7220  163.8819 O.2     1  UNL1       -0.2701
      5 H         140.1279  141.1849  163.6621 H       1  UNL1        0.1498
      6 C         140.1514  139.4297  165.8156 C.ar    1  UNL1        0.0725
      7 C         141.3321  139.9381  166.5887 C.ar    1  UNL1        0.0074
      8 C         141.1993  140.2317  168.0537 C.ar    1  UNL1        0.0174
      9 C         139.8858  140.0169  168.7456 C.ar    1  UNL1        0.0888
     10 N         138.7052  139.5085  167.9725 N.ar    1  UNL1       -0.2455
     11 C         138.8380  139.2149  166.5075 C.ar    1  UNL1        0.1030
     12 C         139.7530  140.3105  170.2105 C.3     1  UNL1        0.1878
     13 O         139.0287  141.5426  170.6659 O.3     1  UNL1       -0.3391
     14 C         139.7235  142.8718  170.6450 C.3     1  UNL1        0.2462
     15 C         141.0929  142.9930  170.0448 C.3     1  UNL1        0.4248
     16 F         142.4621  143.1142  169.4445 F       1  UNL1       -0.1674
     17 F         141.6946  142.4534  171.3083 F       1  UNL1       -0.1674
     18 F         140.4912  143.5326  168.7812 F       1  UNL1       -0.1674
     19 C         141.7250  140.0016  161.2361 C.3     1  UNL1        0.0500
     20 C         143.3352  141.8841  162.0195 C.ar    1  UNL1        0.0449
     21 C         144.5358  142.3235  162.8039 C.ar    1  UNL1        0.1414
     22 F         144.9454  143.7666  162.8028 F       1  UNL1       -0.2041
     23 C         145.3270  141.3200  163.5894 C.ar    1  UNL1        0.0320
     24 C         144.9175  139.8770  163.5904 C.ar    1  UNL1        0.0316
     25 C         143.7168  139.4376  162.8060 C.ar    1  UNL1        0.1364
     26 F         143.3073  137.9945  162.8071 F       1  UNL1       -0.2045
     27 C         142.9257  140.4411  162.0205 C.ar    1  UNL1        0.0107
     28 C         140.9618  144.8948  159.6631 C.ar    1  UNL1        0.2449
     29 C         140.5091  144.4906  161.0348 C.ar    1  UNL1        0.1564
     30 N         141.3003  143.4870  161.8202 N.ar    1  UNL1       -0.2373
     31 C         142.5441  142.8877  161.2340 C.ar    1  UNL1        0.1026
     32 C         142.9967  143.2919  159.8623 C.ar    1  UNL1        0.1212
     33 N         142.2056  144.2955  159.0768 N.ar    1  UNL1       -0.2072
     34 C         140.3535  146.0010  157.3923 C.3     1  UNL1        0.2543
     35 O         140.1707  145.8984  158.8776 O.3     1  UNL1       -0.4551
@<TRIPOS>BOND
     1    34    35    1
     2    35    28    1
     3    28    29   ar
     4    29    30   ar
     5    30    31   ar
     6    31    20    1
     7    20    21   ar
     8    21    22    1
     9    21    23   ar
    10    23    24   ar
    11    24    25   ar
    12    25    26    1
    13    25    27   ar
    14    27    19    1
    15    19     1    1
    16     1     2    1
    17     2     3   am
    18     3     4    2
    19     3     6    1
    20     6     7   ar
    21     7     8   ar
    22     8     9   ar
    23     9    12    1
    24    12    13    1
    25    13    14    1
    26    14    15    1
    27    15    16    1
    28    15    17    1
    29    15    18    1
    30     9    10   ar
    31    10    11   ar
    32    31    32   ar
    33    32    33   ar
    34    33    28   ar
    35    27    20   ar
    36    11     6   ar
    37     2     5    1
@<TRIPOS>MOLECULE
*****
 35 37 0 0 0
SMALL
GASTEIGER

@<TRIPOS>ATOM
      1 C         138.2187  139.4947  166.4319 C.3     1  UNL1        0.0944
      2 N         138.4142  140.3979  165.2503 N.am    1  UNL1       -0.3005
      3 C         138.5898  139.8131  163.8802 C.2     1  UNL1        0.2474
      4 O         138.5699  138.3251  163.6917 O.2     1  UNL1       -0.2701
      5 H         138.4272  141.3745  165.3740 H       1  UNL1        0.1498
      6 C         138.7853  140.7163  162.6987 C.ar    1  UNL1        0.0725
      7 C         139.8571  140.4148  161.6934 C.ar    1  UNL1        0.0074
      8 C         140.0526  141.3179  160.5119 C.ar    1  UNL1        0.0174
      9 C         139.1764  142.5226  160.3356 C.ar    1  UNL1        0.0888
     10 N         138.1047  142.8241  161.3408 N.ar    1  UNL1       -0.2455
     11 C         137.9092  141.9209  162.5224 C.ar    1  UNL1        0.1030
     12 C         139.3719  143.4257  159.1541 C.3     1  UNL1        0.1878
     13 O         139.6559  144.8837  159.3634 O.3     1  UNL1       -0.3391
     14 C         140.6899  145.3106  160.3626 C.3     1  UNL1        0.2462
     15 C         140.2965  145.5622  161.7881 C.3     1  UNL1        0.4248
     16 F         139.9031  145.8139  163.2135 F       1  UNL1       -0.1674
     17 F         141.1472  144.4073  162.2268 F       1  UNL1       -0.1674
     18 F         139.4458  146.7171  161.3494 F       1  UNL1       -0.1674
     19 C         139.3779  139.1677  167.3259 C.3     1  UNL1        0.0500
     20 C         141.3300  140.8291  167.7491 C.ar    1  UNL1        0.0449
     21 C         141.9628  141.9052  168.5806 C.ar    1  UNL1        0.1414
     22 F         143.2822  142.4904  168.1722 F       1  UNL1       -0.2041
     23 C         141.2762  142.3962  169.8206 C.ar    1  UNL1        0.0320
     24 C         139.9568  141.8110  170.2290 C.ar    1  UNL1        0.0316
     25 C         139.3240  140.7349  169.3974 C.ar    1  UNL1        0.1364
     26 F         138.0046  140.1497  169.8058 F       1  UNL1       -0.2045
     27 C         140.0107  140.2439  168.1574 C.ar    1  UNL1        0.0107
     28 C         143.3899  139.3561  164.0292 C.ar    1  UNL1        0.2449
     29 C         142.4192  140.4966  163.9473 C.ar    1  UNL1        0.1564
     30 N         141.7326  140.9876  165.1873 N.ar    1  UNL1       -0.2373
     31 C         142.0167  140.3381  166.5091 C.ar    1  UNL1        0.1026
     32 C         142.9874  139.1975  166.5910 C.ar    1  UNL1        0.1212
     33 N         143.6740  138.7065  165.3511 N.ar    1  UNL1       -0.2072
     34 C         143.4920  139.1628  161.4404 C.3     1  UNL1        0.2543
     35 O         144.0766  138.8651  162.7893 O.3     1  UNL1       -0.4551
@<TRIPOS>BOND
     1    34    35    1
     2    35    28    1
     3    28    29   ar
     4    29    30   ar
     5    30    31   ar
     6    31    20    1
     7    20    21   ar
     8    21    22    1
     9    21    23   ar
    10    23    24   ar
    11    24    25   ar
    12    25    26    1
    13    25    27   ar
    14    27    19    1
    15    19     1    1
    16     1     2    1
    17     2     3   am
    18     3     4    2
    19     3     6    1
    20     6     7   ar
    21     7     8   ar
    22     8     9   ar
    23     9    12    1
    24    12    13    1
    25    13    14    1
    26    14    15    1
    27    15    16    1
    28    15    17    1
    29    15    18    1
    30     9    10   ar
    31    10    11   ar
    32    31    32   ar
    33    32    33   ar
    34    33    28   ar
    35    27    20   ar
    36    11     6   ar
    37     2     5    1
@<TRIPOS>MOLECULE
*****
 35 37 0 0 0
SMALL
GASTEIGER

@<TRIPOS>ATOM
      1 C         142.9054  140.0628  162.8440 C.3     1  UNL1        0.0944
      2 N         142.6878  140.1375  164.3263 N.am    1  UNL1       -0.3005
      3 C         141.4351  139.5747  164.9298 C.2     1  UNL1        0.2474
      4 O         140.4001  138.9372  164.0510 O.2     1  UNL1       -0.2701
      5 H         143.3671  140.5559  164.9031 H       1  UNL1        0.1498
      6 C         141.2175  139.6495  166.4120 C.ar    1  UNL1        0.0725
      7 C         142.3876  139.5660  167.3470 C.ar    1  UNL1        0.0074
      8 C         142.1700  139.6407  168.8292 C.ar    1  UNL1        0.0174
      9 C         140.7824  139.7990  169.3765 C.ar    1  UNL1        0.0888
     10 N         139.6124  139.8825  168.4416 N.ar    1  UNL1       -0.2455
     11 C         139.8300  139.8078  166.9593 C.ar    1  UNL1        0.1030
     12 C         140.5648  139.8737  170.8587 C.3     1  UNL1        0.1878
     13 O         140.5687  141.2044  171.5512 O.3     1  UNL1       -0.3391
     14 C         141.3208  142.3575  170.9558 C.3     1  UNL1        0.2462
     15 C         140.6697  143.2211  169.9163 C.3     1  UNL1        0.4248
     16 F         140.0187  144.0846  168.8769 F       1  UNL1       -0.1674
     17 F         139.4699  143.3827  170.8019 F       1  UNL1       -0.1674
     18 F         141.8695  143.0595  169.0307 F       1  UNL1       -0.1674
     19 C         143.2227  141.3071  162.0689 C.3     1  UNL1        0.0500
     20 C         141.5349  143.2686  162.3006 C.ar    1  UNL1        0.0449
     21 C         141.1744  144.6130  162.8598 C.ar    1  UNL1        0.1414
     22 F         139.8470  145.2302  162.5322 F       1  UNL1       -0.2041
     23 C         142.1412  145.3402  163.7466 C.ar    1  UNL1        0.0320
     24 C         143.4685  144.7231  164.0741 C.ar    1  UNL1        0.0316
     25 C         143.8290  143.3788  163.5149 C.ar    1  UNL1        0.1364
     26 F         145.1564  142.7616  163.8424 F       1  UNL1       -0.2045
     27 C         142.8622  142.6515  162.6281 C.ar    1  UNL1        0.0107
     28 C         138.6343  141.0870  159.6403 C.ar    1  UNL1        0.2449
     29 C         138.6116  140.8570  161.1223 C.ar    1  UNL1        0.1564
     30 N         139.5784  141.5842  162.0091 N.ar    1  UNL1       -0.2373
     31 C         140.5680  142.5414  161.4138 C.ar    1  UNL1        0.1026
     32 C         140.5908  142.7714  159.9317 C.ar    1  UNL1        0.1212
     33 N         139.6239  142.0442  159.0450 N.ar    1  UNL1       -0.2072
     34 C         137.3630  140.8885  157.3833 C.3     1  UNL1        0.2543
     35 O         137.6675  140.3597  158.7535 O.3     1  UNL1       -0.4551
@<TRIPOS>BOND
     1    34    35    1
     2    35    28    1
     3    28    29   ar
     4    29    30   ar
     5    30    31   ar
     6    31    20    1
     7    20    21   ar
     8    21    22    1
     9    21    23   ar
    10    23    24   ar
    11    24    25   ar
    12    25    26    1
    13    25    27   ar
    14    27    19    1
    15    19     1    1
    16     1     2    1
    17     2     3   am
    18     3     4    2
    19     3     6    1
    20     6     7   ar
    21     7     8   ar
    22     8     9   ar
    23     9    12    1
    24    12    13    1
    25    13    14    1
    26    14    15    1
    27    15    16    1
    28    15    17    1
    29    15    18    1
    30     9    10   ar
    31    10    11   ar
    32    31    32   ar
    33    32    33   ar
    34    33    28   ar
    35    27    20   ar
    36    11     6   ar
    37     2     5    1
@<TRIPOS>MOLECULE
*****
 35 37 0 0 0
SMALL
GASTEIGER

@<TRIPOS>ATOM
      1 C         138.7742  138.2343  161.7566 C.3     1  UNL1        0.0944
      2 N         139.3218  138.7861  163.0395 N.am    1  UNL1       -0.3005
      3 C         140.4597  138.0932  163.7287 C.2     1  UNL1        0.2474
      4 O         141.0499  136.8485  163.1352 O.2     1  UNL1       -0.2701
      5 H         138.9344  139.6030  163.4290 H       1  UNL1        0.1498
      6 C         141.0072  138.6451  165.0115 C.ar    1  UNL1        0.0725
      7 C         142.4266  138.3609  165.4049 C.ar    1  UNL1        0.0074
      8 C         142.9742  138.9128  166.6877 C.ar    1  UNL1        0.0174
      9 C         142.1024  139.7487  167.5772 C.ar    1  UNL1        0.0888
     10 N         140.6831  140.0329  167.1839 N.ar    1  UNL1       -0.2455
     11 C         140.1355  139.4810  165.9010 C.ar    1  UNL1        0.1030
     12 C         142.6500  140.3006  168.8600 C.3     1  UNL1        0.1878
     13 O         141.7894  140.3386  170.0880 O.3     1  UNL1       -0.3391
     14 C         141.3827  141.6561  170.6784 C.3     1  UNL1        0.2462
     15 C         140.7442  142.7011  169.8121 C.3     1  UNL1        0.4248
     16 F         140.1056  143.7460  168.9458 F       1  UNL1       -0.1674
     17 F         141.9880  143.5348  169.9008 F       1  UNL1       -0.1674
     18 F         139.5004  141.8674  169.7233 F       1  UNL1       -0.1674
     19 C         138.4907  139.1531  160.6054 C.3     1  UNL1        0.0500
     20 C         140.1564  141.0950  160.1531 C.ar    1  UNL1        0.0449
     21 C         141.2896  141.6764  159.3608 C.ar    1  UNL1        0.1414
     22 F         141.8221  143.0369  159.7008 F       1  UNL1       -0.2041
     23 C         141.8904  140.8972  158.2286 C.ar    1  UNL1        0.0320
     24 C         141.3580  139.5368  157.8886 C.ar    1  UNL1        0.0316
     25 C         140.2248  138.9554  158.6809 C.ar    1  UNL1        0.1364
     26 F         139.6923  137.5949  158.3409 F       1  UNL1       -0.2045
     27 C         139.6240  139.7345  159.8131 C.ar    1  UNL1        0.0107
     28 C         138.3539  143.4323  163.5498 C.ar    1  UNL1        0.2449
     29 C         139.5262  142.5304  163.7990 C.ar    1  UNL1        0.1564
     30 N         140.1270  141.7513  162.6667 N.ar    1  UNL1       -0.2373
     31 C         139.5555  141.8741  161.2853 C.ar    1  UNL1        0.1026
     32 C         138.3832  142.7760  161.0362 C.ar    1  UNL1        0.1212
     33 N         137.7824  143.5552  162.1685 N.ar    1  UNL1       -0.2072
     34 C         138.6417  144.9430  165.6438 C.3     1  UNL1        0.2543
     35 O         137.7530  144.2114  164.6821 O.3     1  UNL1       -0.4551
@<TRIPOS>BOND
     1    34    35    1
     2    35    28    1
     3    28    29   ar
     4    29    30   ar
     5    30    31   ar
     6    31    20    1
     7    20    21   ar
     8    21    22    1
     9    21    23   ar
    10    23    24   ar
    11    24    25   ar
    12    25    26    1
    13    25    27   ar
    14    27    19    1
    15    19     1    1
    16     1     2    1
    17     2     3   am
    18     3     4    2
    19     3     6    1
    20     6     7   ar
    21     7     8   ar
    22     8     9   ar
    23     9    12    1
    24    12    13    1
    25    13    14    1
    26    14    15    1
    27    15    16    1
    28    15    17    1
    29    15    18    1
    30     9    10   ar
    31    10    11   ar
    32    31    32   ar
    33    32    33   ar
    34    33    28   ar
    35    27    20   ar
    36    11     6   ar
    37     2     5    1
@<TRIPOS>MOLECULE
*****
 35 37 0 0 0
SMALL
GASTEIGER

@<TRIPOS>ATOM
      1 C         138.4329  139.8767  166.7312 C.3     1  UNL1        0.0944
      2 N         138.7083  139.8738  165.2566 N.am    1  UNL1       -0.3005
      3 C         138.7838  138.5748  164.5103 C.2     1  UNL1        0.2474
      4 O         138.5838  137.2788  165.2385 O.2     1  UNL1       -0.2701
      5 H         138.8396  140.7244  164.7787 H       1  UNL1        0.1498
      6 C         139.0592  138.5720  163.0359 C.ar    1  UNL1        0.0725
      7 C         140.3604  138.0357  162.5170 C.ar    1  UNL1        0.0074
      8 C         140.6358  138.0328  161.0425 C.ar    1  UNL1        0.0174
      9 C         139.6100  138.5662  160.0869 C.ar    1  UNL1        0.0888
     10 N         138.3088  139.1024  160.6057 N.ar    1  UNL1       -0.2455
     11 C         138.0334  139.1053  162.0802 C.ar    1  UNL1        0.1030
     12 C         139.8854  138.5633  158.6124 C.3     1  UNL1        0.1878
     13 O         140.9821  139.4201  158.0526 O.3     1  UNL1       -0.3391
     14 C         142.3436  138.8365  157.8167 C.3     1  UNL1        0.2462
     15 C         142.4935  137.3693  157.5429 C.3     1  UNL1        0.4248
     16 F         142.6434  135.9021  157.2691 F       1  UNL1       -0.1674
     17 F         142.0308  137.5852  156.1325 F       1  UNL1       -0.1674
     18 F         142.9562  137.1533  158.9533 F       1  UNL1       -0.1674
     19 C         139.5310  139.5514  167.6999 C.3     1  UNL1        0.0500
     20 C         141.5797  141.1388  167.8818 C.ar    1  UNL1        0.0449
     21 C         142.3085  142.2434  168.5879 C.ar    1  UNL1        0.1414
     22 F         143.6285  142.7261  168.0637 F       1  UNL1       -0.2041
     23 C         141.7174  142.8654  169.8182 C.ar    1  UNL1        0.0320
     24 C         140.3975  142.3827  170.3425 C.ar    1  UNL1        0.0316
     25 C         139.6687  141.2781  169.6363 C.ar    1  UNL1        0.1364
     26 F         138.3487  140.7954  170.1606 F       1  UNL1       -0.2045
     27 C         140.2598  140.6561  168.4060 C.ar    1  UNL1        0.0107
     28 C         143.3531  139.2728  164.1908 C.ar    1  UNL1        0.2449
     29 C         142.4501  140.4643  164.0690 C.ar    1  UNL1        0.1564
     30 N         141.8590  141.0863  165.2993 N.ar    1  UNL1       -0.2373
     31 C         142.1709  140.5168  166.6515 C.ar    1  UNL1        0.1026
     32 C         143.0739  139.3253  166.7733 C.ar    1  UNL1        0.1212
     33 N         143.6650  138.7033  165.5429 N.ar    1  UNL1       -0.2072
     34 C         144.0005  139.4294  161.6796 C.3     1  UNL1        0.2543
     35 O         143.9442  138.6509  162.9605 O.3     1  UNL1       -0.4551
@<TRIPOS>BOND
     1    34    35    1
     2    35    28    1
     3    28    29   ar
     4    29    30   ar
     5    30    31   ar
     6    31    20    1
     7    20    21   ar
     8    21    22    1
     9    21    23   ar
    10    23    24   ar
    11    24    25   ar
    12    25    26    1
    13    25    27   ar
    14    27    19    1
    15    19     1    1
    16     1     2    1
    17     2     3   am
    18     3     4    2
    19     3     6    1
    20     6     7   ar
    21     7     8   ar
    22     8     9   ar
    23     9    12    1
    24    12    13    1
    25    13    14    1
    26    14    15    1
    27    15    16    1
    28    15    17    1
    29    15    18    1
    30     9    10   ar
    31    10    11   ar
    32    31    32   ar
    33    32    33   ar
    34    33    28   ar
    35    27    20   ar
    36    11     6   ar
    37     2     5    1
@<TRIPOS>MOLECULE
*****
 35 37 0 0 0
SMALL
GASTEIGER

@<TRIPOS>ATOM
      1 C         142.7790  142.4365  166.3951 C.3     1  UNL1        0.0944
      2 N         142.1481  142.8665  165.1038 N.am    1  UNL1       -0.3005
      3 C         142.8168  143.9038  164.2513 C.2     1  UNL1        0.2474
      4 O         144.1162  144.5112  164.6900 O.2     1  UNL1       -0.2701
      5 H         141.2952  142.4678  164.8159 H       1  UNL1        0.1498
      6 C         142.1859  144.3338  162.9602 C.ar    1  UNL1        0.0725
      7 C         140.9607  145.1991  162.9757 C.ar    1  UNL1        0.0074
      8 C         140.3298  145.6291  161.6845 C.ar    1  UNL1        0.0174
      9 C         140.9241  145.1937  160.3779 C.ar    1  UNL1        0.0888
     10 N         142.1492  144.3284  160.3623 N.ar    1  UNL1       -0.2455
     11 C         142.7801  143.8984  161.6535 C.ar    1  UNL1        0.1030
     12 C         140.2932  145.6237  159.0867 C.3     1  UNL1        0.1878
     13 O         140.4787  144.7964  157.8492 O.3     1  UNL1       -0.3391
     14 C         139.7388  145.1494  156.5932 C.3     1  UNL1        0.2462
     15 C         140.0196  146.4482  155.8971 C.3     1  UNL1        0.4248
     16 F         140.3003  147.7469  155.2010 F       1  UNL1       -0.1674
     17 F         141.4720  146.0849  155.8050 F       1  UNL1       -0.1674
     18 F         138.5672  146.8115  155.9891 F       1  UNL1       -0.1674
     19 C         142.5686  141.0415  166.9046 C.3     1  UNL1        0.0500
     20 C         140.3219  140.4307  168.0576 C.ar    1  UNL1        0.0449
     21 C         139.5229  140.2008  169.3060 C.ar    1  UNL1        0.1414
     22 F         138.0752  139.8199  169.2105 F       1  UNL1       -0.2041
     23 C         140.1716  140.3518  170.6501 C.ar    1  UNL1        0.0320
     24 C         141.6192  140.7327  170.7456 C.ar    1  UNL1        0.0316
     25 C         142.4182  140.9626  169.4971 C.ar    1  UNL1        0.1364
     26 F         143.8660  141.3435  169.5926 F       1  UNL1       -0.2045
     27 C         141.7695  140.8116  168.1531 C.ar    1  UNL1        0.0107
     28 C         138.3758  139.9777  164.0255 C.ar    1  UNL1        0.2449
     29 C         138.6816  141.3449  164.5613 C.ar    1  UNL1        0.1564
     30 N         139.3303  141.4959  165.9054 N.ar    1  UNL1       -0.2373
     31 C         139.6732  140.2797  166.7135 C.ar    1  UNL1        0.1026
     32 C         139.3674  138.9125  166.1777 C.ar    1  UNL1        0.1212
     33 N         138.7187  138.7615  164.8337 N.ar    1  UNL1       -0.2072
     34 C         137.9661  138.5892  161.8681 C.3     1  UNL1        0.2543
     35 O         137.7272  139.8267  162.6815 O.3     1  UNL1       -0.4551
@<TRIPOS>BOND
     1    34    35    1
     2    35    28    1
     3    28    29   ar
     4    29    30   ar
     5    30    31   ar
     6    31    20    1
     7    20    21   ar
     8    21    22    1
     9    21    23   ar
    10    23    24   ar
    11    24    25   ar
    12    25    26    1
    13    25    27   ar
    14    27    19    1
    15    19     1    1
    16     1     2    1
    17     2     3   am
    18     3     4    2
    19     3     6    1
    20     6     7   ar
    21     7     8   ar
    22     8     9   ar
    23     9    12    1
    24    12    13    1
    25    13    14    1
    26    14    15    1
    27    15    16    1
    28    15    17    1
    29    15    18    1
    30     9    10   ar
    31    10    11   ar
    32    31    32   ar
    33    32    33   ar
    34    33    28   ar
    35    27    20   ar
    36    11     6   ar
    37     2     5    1
@<TRIPOS>MOLECULE
*****
 35 37 0 0 0
SMALL
GASTEIGER

@<TRIPOS>ATOM
      1 C         138.1446  138.6177  162.2676 C.3     1  UNL1        0.0944
      2 N         138.4899  138.7018  163.7249 N.am    1  UNL1       -0.3005
      3 C         138.4623  140.0270  164.4270 C.2     1  UNL1        0.2474
      4 O         138.0893  141.2682  163.6718 O.2     1  UNL1       -0.2701
      5 H         138.7347  137.8871  164.2205 H       1  UNL1        0.1498
      6 C         138.8076  140.1110  165.8843 C.ar    1  UNL1        0.0725
      7 C         139.8014  141.1279  166.3622 C.ar    1  UNL1        0.0074
      8 C         140.1467  141.2119  167.8194 C.ar    1  UNL1        0.0174
      9 C         139.4983  140.2790  168.7988 C.ar    1  UNL1        0.0888
     10 N         138.5046  139.2621  168.3210 N.ar    1  UNL1       -0.2455
     11 C         138.1592  139.1781  166.8637 C.ar    1  UNL1        0.1030
     12 C         139.8436  140.3630  170.2561 C.3     1  UNL1        0.1878
     13 O         141.2793  140.4452  170.6832 O.3     1  UNL1       -0.3391
     14 C         141.9211  141.7830  170.9024 C.3     1  UNL1        0.2462
     15 C         143.1213  142.1805  170.0950 C.3     1  UNL1        0.4248
     16 F         144.3213  142.5778  169.2876 F       1  UNL1       -0.1674
     17 F         143.0146  143.5796  170.6251 F       1  UNL1       -0.1674
     18 F         143.2279  140.7813  169.5649 F       1  UNL1       -0.1674
     19 C         139.0494  137.8829  161.3235 C.3     1  UNL1        0.0500
     20 C         140.9268  139.2360  160.1426 C.ar    1  UNL1        0.0449
     21 C         142.3700  139.6284  160.0287 C.ar    1  UNL1        0.1414
     22 F         142.8041  140.5891  158.9616 F       1  UNL1       -0.2041
     23 C         143.3792  139.0603  160.9820 C.ar    1  UNL1        0.0320
     24 C         142.9451  138.0996  162.0491 C.ar    1  UNL1        0.0316
     25 C         141.5019  137.7072  162.1629 C.ar    1  UNL1        0.1364
     26 F         141.0678  136.7465  163.2301 F       1  UNL1       -0.2045
     27 C         140.4927  138.2754  161.2097 C.ar    1  UNL1        0.0107
     28 C         137.8992  140.9406  157.2828 C.ar    1  UNL1        0.2449
     29 C         138.2434  141.6820  158.5404 C.ar    1  UNL1        0.1564
     30 N         139.2526  141.1138  159.4937 N.ar    1  UNL1       -0.2373
     31 C         139.9176  139.8042  159.1893 C.ar    1  UNL1        0.1026
     32 C         139.5734  139.0628  157.9317 C.ar    1  UNL1        0.1212
     33 N         138.5642  139.6310  156.9784 N.ar    1  UNL1       -0.2072
     34 C         135.5485  140.8547  156.1798 C.3     1  UNL1        0.2543
     35 O         136.8900  141.5087  156.3295 O.3     1  UNL1       -0.4551
@<TRIPOS>BOND
     1    34    35    1
     2    35    28    1
     3    28    29   ar
     4    29    30   ar
     5    30    31   ar
     6    31    20    1
     7    20    21   ar
     8    21    22    1
     9    21    23   ar
    10    23    24   ar
    11    24    25   ar
    12    25    26    1
    13    25    27   ar
    14    27    19    1
    15    19     1    1
    16     1     2    1
    17     2     3   am
    18     3     4    2
    19     3     6    1
    20     6     7   ar
    21     7     8   ar
    22     8     9   ar
    23     9    12    1
    24    12    13    1
    25    13    14    1
    26    14    15    1
    27    15    16    1
    28    15    17    1
    29    15    18    1
    30     9    10   ar
    31    10    11   ar
    32    31    32   ar
    33    32    33   ar
    34    33    28   ar
    35    27    20   ar
    36    11     6   ar
    37     2     5    1
@<TRIPOS>MOLECULE
*****
 35 37 0 0 0
SMALL
GASTEIGER

@<TRIPOS>ATOM
      1 C         145.3989  142.5054  164.1662 C.3     1  UNL1        0.0944
      2 N         144.8147  141.8276  162.9623 N.am    1  UNL1       -0.3005
      3 C         144.7081  140.3319  162.9216 C.2     1  UNL1        0.2474
      4 O         145.1857  139.5141  164.0848 O.2     1  UNL1       -0.2701
      5 H         144.5013  142.3643  162.1988 H       1  UNL1        0.1498
      6 C         144.1240  139.6541  161.7177 C.ar    1  UNL1        0.0725
      7 C         143.6932  138.2196  161.7999 C.ar    1  UNL1        0.0074
      8 C         143.1090  137.5419  160.5960 C.ar    1  UNL1        0.0174
      9 C         142.9557  138.2985  159.3100 C.ar    1  UNL1        0.0888
     10 N         143.3865  139.7329  159.2278 N.ar    1  UNL1       -0.2455
     11 C         143.9706  140.4108  160.4317 C.ar    1  UNL1        0.1030
     12 C         142.3715  137.6207  158.1061 C.3     1  UNL1        0.1878
     13 O         143.2560  137.2438  156.9546 O.3     1  UNL1       -0.3391
     14 C         143.4096  135.8029  156.5673 C.3     1  UNL1        0.2462
     15 C         142.2414  135.0488  156.0045 C.3     1  UNL1        0.4248
     16 F         141.0732  134.2948  155.4417 F       1  UNL1       -0.1674
     17 F         141.9155  136.2147  155.1188 F       1  UNL1       -0.1674
     18 F         142.5673  133.8830  156.8901 F       1  UNL1       -0.1674
     19 C         144.5350  143.3761  165.0296 C.3     1  UNL1        0.0500
     20 C         141.9702  142.9845  165.1653 C.ar    1  UNL1        0.0449
     21 C         140.5782  143.3307  164.7265 C.ar    1  UNL1        0.1414
     22 F         139.4053  142.5929  165.3011 F       1  UNL1       -0.2041
     23 C         140.3591  144.4146  163.7130 C.ar    1  UNL1        0.0320
     24 C         141.5319  145.1523  163.1384 C.ar    1  UNL1        0.0316
     25 C         142.9238  144.8062  163.5773 C.ar    1  UNL1        0.1364
     26 F         144.0967  145.5439  163.0026 F       1  UNL1       -0.2045
     27 C         143.1430  143.7223  164.5907 C.ar    1  UNL1        0.0107
     28 C         142.6276  139.7328  168.2058 C.ar    1  UNL1        0.2449
     29 C         142.5794  141.1675  168.6406 C.ar    1  UNL1        0.1564
     30 N         142.3602  142.2514  167.6271 N.ar    1  UNL1       -0.2373
     31 C         142.1893  141.9006  166.1788 C.ar    1  UNL1        0.1026
     32 C         142.2375  140.4659  165.7440 C.ar    1  UNL1        0.1212
     33 N         142.4567  139.3820  166.7575 N.ar    1  UNL1       -0.2072
     34 C         143.0631  139.0026  170.6608 C.3     1  UNL1        0.2543
     35 O         142.8467  138.6489  169.2192 O.3     1  UNL1       -0.4551
@<TRIPOS>BOND
     1    34    35    1
     2    35    28    1
     3    28    29   ar
     4    29    30   ar
     5    30    31   ar
     6    31    20    1
     7    20    21   ar
     8    21    22    1
     9    21    23   ar
    10    23    24   ar
    11    24    25   ar
    12    25    26    1
    13    25    27   ar
    14    27    19    1
    15    19     1    1
    16     1     2    1
    17     2     3   am
    18     3     4    2
    19     3     6    1
    20     6     7   ar
    21     7     8   ar
    22     8     9   ar
    23     9    12    1
    24    12    13    1
    25    13    14    1
    26    14    15    1
    27    15    16    1
    28    15    17    1
    29    15    18    1
    30     9    10   ar
    31    10    11   ar
    32    31    32   ar
    33    32    33   ar
    34    33    28   ar
    35    27    20   ar
    36    11     6   ar
    37     2     5    1
