@<TRIPOS>MOLECULE
*****
 34 37 0 0 0
SMALL
GASTEIGER

@<TRIPOS>ATOM
      1 C         142.5570  137.8584  162.5736 C.3     1  UNL1        0.1875
      2 C         142.4607  138.9191  163.6299 C.ar    1  UNL1        0.0901
      3 C         142.5570  138.5450  165.0794 C.ar    1  UNL1        0.0212
      4 C         142.4607  139.6057  166.1355 C.ar    1  UNL1        0.0754
      5 C         142.2681  141.0404  165.7424 C.ar    1  UNL1        0.0382
      6 C         142.1718  141.4145  164.2930 C.ar    1  UNL1        0.1313
      7 N         142.2681  140.3538  163.2367 N.ar    1  UNL1       -0.2325
      8 N         141.9792  142.8491  163.8999 N.pl3   1  UNL1       -0.2922
      9 C         142.8249  144.0060  164.3433 C.3     1  UNL1        0.0933
     10 C         142.2756  145.2507  163.7119 C.3     1  UNL1        0.0383
     11 C         141.0904  144.8632  162.8782 C.3     1  UNL1        0.1128
     12 C         140.9072  143.3790  162.9944 C.3     1  UNL1        0.1072
     13 C         140.2379  145.7962  162.0701 C.1     1  UNL1        0.0739
     14 N         139.3855  146.7292  161.2621 N.1     1  UNL1       -0.1958
     15 C         142.5570  139.2317  167.5851 C.3     1  UNL1        0.4187
     16 F         142.6533  138.8577  169.0345 F       1  UNL1       -0.1659
     17 F         143.6629  138.2706  167.2635 F       1  UNL1       -0.1659
     18 F         141.4511  140.1929  167.9065 F       1  UNL1       -0.1659
     19 O         141.3452  137.4864  161.7716 O.3     1  UNL1       -0.3470
     20 C         139.9750  137.6738  162.3525 C.3     1  UNL1        0.1467
     21 C         137.8200  140.8433  158.0919 C.3     1  UNL1        0.0896
     22 N         138.2519  140.1670  159.3592 N.3     1  UNL1       -0.2715
     23 C         137.7557  140.6679  160.6832 C.3     1  UNL1        0.0725
     24 C         138.1876  139.9916  161.9506 C.3     1  UNL1        0.0238
     25 C         139.1156  138.8146  161.8940 C.3     1  UNL1        0.0489
     26 C         139.6117  138.3137  160.5700 C.3     1  UNL1        0.0238
     27 C         139.1799  138.9900  159.3026 C.3     1  UNL1        0.0725
     28 C         138.9179  138.9193  163.3772 C.ar    1  UNL1       -0.0202
     29 C         138.8830  137.6780  164.2186 C.ar    1  UNL1       -0.0019
     30 C         138.6853  137.7826  165.7019 C.ar    1  UNL1        0.0293
     31 C         138.5224  139.1286  166.3436 C.ar    1  UNL1        0.1401
     32 F         138.3247  139.2333  167.8269 F       1  UNL1       -0.2042
     33 C         138.5573  140.3699  165.5022 C.ar    1  UNL1        0.0293
     34 C         138.7550  140.2652  164.0190 C.ar    1  UNL1       -0.0019
@<TRIPOS>BOND
     1    21    22    1
     2    22    23    1
     3    23    24    1
     4    24    25    1
     5    25    20    1
     6    20    19    1
     7    19     1    1
     8     1     2    1
     9     2     3   ar
    10     3     4   ar
    11     4    15    1
    12    15    16    1
    13    15    17    1
    14    15    18    1
    15     4     5   ar
    16     5     6   ar
    17     6     8    1
    18     8     9    1
    19     9    10    1
    20    10    11    1
    21    11    13    1
    22    13    14    3
    23    11    12    1
    24     6     7   ar
    25    25    28    1
    26    28    29   ar
    27    29    30   ar
    28    30    31   ar
    29    31    32    1
    30    31    33   ar
    31    33    34   ar
    32    25    26    1
    33    26    27    1
    34    27    22    1
    35     7     2   ar
    36    34    28   ar
    37    12     8    1
@<TRIPOS>MOLECULE
*****
 34 37 0 0 0
SMALL
GASTEIGER

@<TRIPOS>ATOM
      1 C         144.0183  139.2533  164.3966 C.3     1  UNL1        0.1875
      2 C         142.9906  139.9364  165.2494 C.ar    1  UNL1        0.0901
      3 C         142.7152  139.4367  166.6367 C.ar    1  UNL1        0.0212
      4 C         141.6875  140.1198  167.4895 C.ar    1  UNL1        0.0754
      5 C         140.9353  141.3024  166.9551 C.ar    1  UNL1        0.0382
      6 C         141.2107  141.8020  165.5678 C.ar    1  UNL1        0.1313
      7 N         142.2384  141.1190  164.7150 N.ar    1  UNL1       -0.2325
      8 N         140.4585  142.9846  165.0334 N.pl3   1  UNL1       -0.2922
      9 C         139.4425  143.7951  165.7824 C.3     1  UNL1        0.0933
     10 C         138.9462  144.8757  164.8683 C.3     1  UNL1        0.0383
     11 C         139.6555  144.7332  163.5542 C.3     1  UNL1        0.1128
     12 C         140.5901  143.5644  163.6563 C.3     1  UNL1        0.1072
     13 C         139.4637  145.6061  162.3495 C.1     1  UNL1        0.0739
     14 N         139.2720  146.4791  161.1449 N.1     1  UNL1       -0.1958
     15 C         141.4120  139.6202  168.8769 C.3     1  UNL1        0.4187
     16 F         141.1364  139.1207  170.2641 F       1  UNL1       -0.1659
     17 F         139.9390  139.6488  168.5945 F       1  UNL1       -0.1659
     18 F         142.8849  139.5917  169.1591 F       1  UNL1       -0.1659
     19 O         143.5957  138.5068  163.1661 O.3     1  UNL1       -0.3470
     20 C         142.2232  137.9067  163.0873 C.3     1  UNL1        0.1467
     21 C         141.4483  138.3859  157.4294 C.3     1  UNL1        0.0896
     22 N         141.4090  138.3327  158.9280 N.3     1  UNL1       -0.2715
     23 C         140.1460  138.6818  159.6580 C.3     1  UNL1        0.0725
     24 C         140.1068  138.6286  161.1565 C.3     1  UNL1        0.0238
     25 C         141.3304  138.2263  161.9250 C.3     1  UNL1        0.0489
     26 C         142.5934  137.8772  161.1950 C.3     1  UNL1        0.0238
     27 C         142.6327  137.9304  159.6965 C.3     1  UNL1        0.0725
     28 C         140.3775  138.4644  163.0587 C.ar    1  UNL1       -0.0202
     29 C         140.3314  137.5080  164.2132 C.ar    1  UNL1       -0.0019
     30 C         139.3785  137.7460  165.3469 C.ar    1  UNL1        0.0293
     31 C         138.4716  138.9407  165.3260 C.ar    1  UNL1        0.1401
     32 F         137.5186  139.1788  166.4597 F       1  UNL1       -0.2042
     33 C         138.5176  139.8972  164.1715 C.ar    1  UNL1        0.0293
     34 C         139.4706  139.6591  163.0378 C.ar    1  UNL1       -0.0019
@<TRIPOS>BOND
     1    21    22    1
     2    22    23    1
     3    23    24    1
     4    24    25    1
     5    25    20    1
     6    20    19    1
     7    19     1    1
     8     1     2    1
     9     2     3   ar
    10     3     4   ar
    11     4    15    1
    12    15    16    1
    13    15    17    1
    14    15    18    1
    15     4     5   ar
    16     5     6   ar
    17     6     8    1
    18     8     9    1
    19     9    10    1
    20    10    11    1
    21    11    13    1
    22    13    14    3
    23    11    12    1
    24     6     7   ar
    25    25    28    1
    26    28    29   ar
    27    29    30   ar
    28    30    31   ar
    29    31    32    1
    30    31    33   ar
    31    33    34   ar
    32    25    26    1
    33    26    27    1
    34    27    22    1
    35     7     2   ar
    36    34    28   ar
    37    12     8    1
@<TRIPOS>MOLECULE
*****
 34 37 0 0 0
SMALL
GASTEIGER

@<TRIPOS>ATOM
      1 C         142.7977  138.0986  162.7494 C.3     1  UNL1        0.1875
      2 C         142.8317  139.3786  163.5308 C.ar    1  UNL1        0.0901
      3 C         143.4255  140.6139  162.9212 C.ar    1  UNL1        0.0212
      4 C         143.4594  141.8938  163.7026 C.ar    1  UNL1        0.0754
      5 C         142.8997  141.9385  165.0935 C.ar    1  UNL1        0.0382
      6 C         142.3059  140.7032  165.7031 C.ar    1  UNL1        0.1313
      7 N         142.2720  139.4233  164.9217 N.ar    1  UNL1       -0.2325
      8 N         141.7462  140.7480  167.0940 N.pl3   1  UNL1       -0.2922
      9 C         141.7524  139.6206  168.0835 C.3     1  UNL1        0.0933
     10 C         141.0921  140.1037  169.3407 C.3     1  UNL1        0.0383
     11 C         140.6778  141.5296  169.1282 C.3     1  UNL1        0.1128
     12 C         141.0821  141.9278  167.7396 C.3     1  UNL1        0.1072
     13 C         139.9814  142.4039  170.1286 C.1     1  UNL1        0.0739
     14 N         139.2851  143.2781  171.1290 N.1     1  UNL1       -0.1958
     15 C         144.0531  143.1292  163.0930 C.3     1  UNL1        0.4187
     16 F         144.6468  144.3645  162.4835 F       1  UNL1       -0.1659
     17 F         142.7030  143.7828  163.1028 F       1  UNL1       -0.1659
     18 F         145.4031  142.4755  163.0832 F       1  UNL1       -0.1659
     19 O         141.6303  137.7950  161.8577 O.3     1  UNL1       -0.3470
     20 C         140.2363  137.8255  162.4108 C.3     1  UNL1        0.1467
     21 C         137.8510  140.7120  158.0725 C.3     1  UNL1        0.0896
     22 N         138.3198  140.0917  159.3552 N.3     1  UNL1       -0.2715
     23 C         137.7191  140.5228  160.6603 C.3     1  UNL1        0.0725
     24 C         138.1879  139.9025  161.9430 C.3     1  UNL1        0.0238
     25 C         139.2574  138.8510  161.9207 C.3     1  UNL1        0.0489
     26 C         139.8580  138.4199  160.6157 C.3     1  UNL1        0.0238
     27 C         139.3892  139.0402  159.3329 C.3     1  UNL1        0.0725
     28 C         138.9966  138.9261  163.3960 C.ar    1  UNL1       -0.0202
     29 C         138.9101  137.6674  164.2073 C.ar    1  UNL1       -0.0019
     30 C         138.6494  137.7424  165.6826 C.ar    1  UNL1        0.0293
     31 C         138.4752  139.0761  166.3465 C.ar    1  UNL1        0.1401
     32 F         138.2145  139.1512  167.8218 F       1  UNL1       -0.2042
     33 C         138.5618  140.3348  165.5352 C.ar    1  UNL1        0.0293
     34 C         138.8225  140.2598  164.0599 C.ar    1  UNL1       -0.0019
@<TRIPOS>BOND
     1    21    22    1
     2    22    23    1
     3    23    24    1
     4    24    25    1
     5    25    20    1
     6    20    19    1
     7    19     1    1
     8     1     2    1
     9     2     3   ar
    10     3     4   ar
    11     4    15    1
    12    15    16    1
    13    15    17    1
    14    15    18    1
    15     4     5   ar
    16     5     6   ar
    17     6     8    1
    18     8     9    1
    19     9    10    1
    20    10    11    1
    21    11    13    1
    22    13    14    3
    23    11    12    1
    24     6     7   ar
    25    25    28    1
    26    28    29   ar
    27    29    30   ar
    28    30    31   ar
    29    31    32    1
    30    31    33   ar
    31    33    34   ar
    32    25    26    1
    33    26    27    1
    34    27    22    1
    35     7     2   ar
    36    34    28   ar
    37    12     8    1
@<TRIPOS>MOLECULE
*****
 34 37 0 0 0
SMALL
GASTEIGER

@<TRIPOS>ATOM
      1 C         143.4554  141.4845  164.6655 C.3     1  UNL1        0.1875
      2 C         142.0933  141.8731  164.1719 C.ar    1  UNL1        0.0901
      3 C         141.3134  142.9386  164.8836 C.ar    1  UNL1        0.0212
      4 C         139.9513  143.3271  164.3899 C.ar    1  UNL1        0.0754
      5 C         139.3691  142.6502  163.1846 C.ar    1  UNL1        0.0382
      6 C         140.1491  141.5848  162.4728 C.ar    1  UNL1        0.1313
      7 N         141.5112  141.1962  162.9665 N.ar    1  UNL1       -0.2325
      8 N         139.5669  140.9079  161.2675 N.pl3   1  UNL1       -0.2922
      9 C         138.1628  141.0613  160.7624 C.3     1  UNL1        0.0933
     10 C         138.0145  140.2071  159.5384 C.3     1  UNL1        0.0383
     11 C         139.3270  139.5258  159.2870 C.3     1  UNL1        0.1128
     12 C         140.2864  139.9589  160.3556 C.3     1  UNL1        0.1072
     13 C         139.6274  138.5777  158.1640 C.1     1  UNL1        0.0739
     14 N         139.9278  137.6296  157.0411 N.1     1  UNL1       -0.1958
     15 C         139.1713  144.3926  165.1017 C.3     1  UNL1        0.4187
     16 F         138.3914  145.4580  165.8134 F       1  UNL1       -0.1659
     17 F         139.5976  143.8225  166.4221 F       1  UNL1       -0.1659
     18 F         138.7451  144.9625  163.7812 F       1  UNL1       -0.1659
     19 O         143.5924  140.5505  165.8313 O.3     1  UNL1       -0.3470
     20 C         142.5288  139.5281  166.1021 C.3     1  UNL1        0.1467
     21 C         140.9538  141.3972  171.2854 C.3     1  UNL1        0.0896
     22 N         141.1185  140.8705  169.8907 N.3     1  UNL1       -0.2715
     23 C         139.9144  140.4525  169.0998 C.3     1  UNL1        0.0725
     24 C         140.0791  139.9257  167.7050 C.3     1  UNL1        0.0238
     25 C         141.4478  139.8169  167.1011 C.3     1  UNL1        0.0489
     26 C         142.6519  140.2348  167.8920 C.3     1  UNL1        0.0238
     27 C         142.4872  140.7616  169.2868 C.3     1  UNL1        0.0725
     28 C         140.6192  139.2986  165.9632 C.ar    1  UNL1       -0.0202
     29 C         139.2441  139.8487  165.7254 C.ar    1  UNL1       -0.0019
     30 C         138.4154  139.3305  164.5876 C.ar    1  UNL1        0.0293
     31 C         138.9619  138.2621  163.6876 C.ar    1  UNL1        0.1401
     32 F         138.1332  137.7439  162.5497 F       1  UNL1       -0.2042
     33 C         140.3369  137.7120  163.9253 C.ar    1  UNL1        0.0293
     34 C         141.1656  138.2303  165.0632 C.ar    1  UNL1       -0.0019
@<TRIPOS>BOND
     1    21    22    1
     2    22    23    1
     3    23    24    1
     4    24    25    1
     5    25    20    1
     6    20    19    1
     7    19     1    1
     8     1     2    1
     9     2     3   ar
    10     3     4   ar
    11     4    15    1
    12    15    16    1
    13    15    17    1
    14    15    18    1
    15     4     5   ar
    16     5     6   ar
    17     6     8    1
    18     8     9    1
    19     9    10    1
    20    10    11    1
    21    11    13    1
    22    13    14    3
    23    11    12    1
    24     6     7   ar
    25    25    28    1
    26    28    29   ar
    27    29    30   ar
    28    30    31   ar
    29    31    32    1
    30    31    33   ar
    31    33    34   ar
    32    25    26    1
    33    26    27    1
    34    27    22    1
    35     7     2   ar
    36    34    28   ar
    37    12     8    1
@<TRIPOS>MOLECULE
*****
 34 37 0 0 0
SMALL
GASTEIGER

@<TRIPOS>ATOM
      1 C         143.3307  141.5535  164.3924 C.3     1  UNL1        0.1875
      2 C         141.9855  142.0774  163.9848 C.ar    1  UNL1        0.0901
      3 C         141.2385  143.0113  164.8903 C.ar    1  UNL1        0.0212
      4 C         139.8934  143.5351  164.4826 C.ar    1  UNL1        0.0754
      5 C         139.2952  143.1251  163.1696 C.ar    1  UNL1        0.0382
      6 C         140.0422  142.1911  162.2641 C.ar    1  UNL1        0.1313
      7 N         141.3874  141.6673  162.6717 N.ar    1  UNL1       -0.2325
      8 N         139.4440  141.7811  160.9511 N.pl3   1  UNL1       -0.2922
      9 C         139.3015  140.3752  160.4479 C.3     1  UNL1        0.0933
     10 C         138.6528  140.4300  159.0966 C.3     1  UNL1        0.0383
     11 C         138.3944  141.8699  158.7646 C.3     1  UNL1        0.1128
     12 C         138.8834  142.7048  159.9108 C.3     1  UNL1        0.1072
     13 C         137.7585  142.3844  157.5072 C.1     1  UNL1        0.0739
     14 N         137.1227  142.8989  156.2499 N.1     1  UNL1       -0.1958
     15 C         139.1463  144.4690  165.3881 C.3     1  UNL1        0.4187
     16 F         138.3993  145.4029  166.2935 F       1  UNL1       -0.1659
     17 F         139.6992  143.7518  166.5839 F       1  UNL1       -0.1659
     18 F         138.5935  145.1862  164.1922 F       1  UNL1       -0.1659
     19 O         143.4605  140.6864  165.6095 O.3     1  UNL1       -0.3470
     20 C         142.4501  139.6099  165.8747 C.3     1  UNL1        0.1467
     21 C         140.9193  141.2478  171.1488 C.3     1  UNL1        0.0896
     22 N         141.0733  140.7725  169.7344 N.3     1  UNL1       -0.2715
     23 C         139.8696  140.3300  168.9566 C.3     1  UNL1        0.0725
     24 C         140.0236  139.8547  167.5423 C.3     1  UNL1        0.0238
     25 C         141.3814  139.8219  166.9057 C.3     1  UNL1        0.0489
     26 C         142.5852  140.2645  167.6835 C.3     1  UNL1        0.0238
     27 C         142.4311  140.7398  169.0979 C.3     1  UNL1        0.0725
     28 C         140.5487  139.3057  165.7698 C.ar    1  UNL1       -0.0202
     29 C         139.2650  139.9923  165.4084 C.ar    1  UNL1       -0.0019
     30 C         138.4323  139.4762  164.2726 C.ar    1  UNL1        0.0293
     31 C         138.8834  138.2734  163.4981 C.ar    1  UNL1        0.1401
     32 F         138.0508  137.7572  162.3622 F       1  UNL1       -0.2042
     33 C         140.1672  137.5868  163.8594 C.ar    1  UNL1        0.0293
     34 C         140.9998  138.1030  164.9953 C.ar    1  UNL1       -0.0019
@<TRIPOS>BOND
     1    21    22    1
     2    22    23    1
     3    23    24    1
     4    24    25    1
     5    25    20    1
     6    20    19    1
     7    19     1    1
     8     1     2    1
     9     2     3   ar
    10     3     4   ar
    11     4    15    1
    12    15    16    1
    13    15    17    1
    14    15    18    1
    15     4     5   ar
    16     5     6   ar
    17     6     8    1
    18     8     9    1
    19     9    10    1
    20    10    11    1
    21    11    13    1
    22    13    14    3
    23    11    12    1
    24     6     7   ar
    25    25    28    1
    26    28    29   ar
    27    29    30   ar
    28    30    31   ar
    29    31    32    1
    30    31    33   ar
    31    33    34   ar
    32    25    26    1
    33    26    27    1
    34    27    22    1
    35     7     2   ar
    36    34    28   ar
    37    12     8    1
@<TRIPOS>MOLECULE
*****
 34 37 0 0 0
SMALL
GASTEIGER

@<TRIPOS>ATOM
      1 C         137.5908  140.3450  161.9252 C.3     1  UNL1        0.1875
      2 C         138.5384  141.4157  162.3790 C.ar    1  UNL1        0.0901
      3 C         138.1130  142.3973  163.4305 C.ar    1  UNL1        0.0212
      4 C         139.0606  143.4679  163.8841 C.ar    1  UNL1        0.0754
      5 C         140.4334  143.5570  163.2864 C.ar    1  UNL1        0.0382
      6 C         140.8588  142.5754  162.2349 C.ar    1  UNL1        0.1313
      7 N         139.9113  141.5047  161.7812 N.ar    1  UNL1       -0.2325
      8 N         142.2317  142.6644  161.6373 N.pl3   1  UNL1       -0.2922
      9 C         143.4958  142.9894  162.3766 C.3     1  UNL1        0.0933
     10 C         144.6269  142.9700  161.3917 C.3     1  UNL1        0.0383
     11 C         144.0619  142.6331  160.0436 C.3     1  UNL1        0.1128
     12 C         142.5816  142.4443  160.1954 C.3     1  UNL1        0.1072
     13 C         144.8405  142.5072  158.7676 C.1     1  UNL1        0.0739
     14 N         145.6191  142.3813  157.4918 N.1     1  UNL1       -0.1958
     15 C         138.6353  144.4496  164.9356 C.3     1  UNL1        0.4187
     16 F         138.2100  145.4311  165.9871 F       1  UNL1       -0.1659
     17 F         137.3045  143.7647  165.0366 F       1  UNL1       -0.1659
     18 F         139.9660  145.1343  164.8346 F       1  UNL1       -0.1659
     19 O         138.0616  138.9252  161.8130 O.3     1  UNL1       -0.3470
     20 C         138.6032  138.2171  163.0193 C.3     1  UNL1        0.1467
     21 C         144.0614  137.8759  161.3064 C.3     1  UNL1        0.0896
     22 N         142.7300  138.0140  161.9834 N.3     1  UNL1       -0.2715
     23 C         142.6627  138.3242  163.4494 C.3     1  UNL1        0.0725
     24 C         141.3313  138.4624  164.1265 C.3     1  UNL1        0.0238
     25 C         140.0673  138.2903  163.3375 C.3     1  UNL1        0.0489
     26 C         140.1346  137.9800  161.8715 C.3     1  UNL1        0.0238
     27 C         141.4659  137.8419  161.1945 C.3     1  UNL1        0.0725
     28 C         139.4915  138.5751  164.6931 C.ar    1  UNL1       -0.0202
     29 C         138.5224  137.6130  165.3135 C.ar    1  UNL1       -0.0019
     30 C         137.9466  137.8977  166.6690 C.ar    1  UNL1        0.0293
     31 C         138.3400  139.1447  167.4040 C.ar    1  UNL1        0.1401
     32 F         137.7643  139.4295  168.7596 F       1  UNL1       -0.2042
     33 C         139.3092  140.1069  166.7836 C.ar    1  UNL1        0.0293
     34 C         139.8850  139.8221  165.4281 C.ar    1  UNL1       -0.0019
@<TRIPOS>BOND
     1    21    22    1
     2    22    23    1
     3    23    24    1
     4    24    25    1
     5    25    20    1
     6    20    19    1
     7    19     1    1
     8     1     2    1
     9     2     3   ar
    10     3     4   ar
    11     4    15    1
    12    15    16    1
    13    15    17    1
    14    15    18    1
    15     4     5   ar
    16     5     6   ar
    17     6     8    1
    18     8     9    1
    19     9    10    1
    20    10    11    1
    21    11    13    1
    22    13    14    3
    23    11    12    1
    24     6     7   ar
    25    25    28    1
    26    28    29   ar
    27    29    30   ar
    28    30    31   ar
    29    31    32    1
    30    31    33   ar
    31    33    34   ar
    32    25    26    1
    33    26    27    1
    34    27    22    1
    35     7     2   ar
    36    34    28   ar
    37    12     8    1
@<TRIPOS>MOLECULE
*****
 34 37 0 0 0
SMALL
GASTEIGER

@<TRIPOS>ATOM
      1 C         137.7814  144.1706  163.0998 C.3     1  UNL1        0.1875
      2 C         138.1911  142.8502  163.6817 C.ar    1  UNL1        0.0901
      3 C         137.9274  141.5826  162.9242 C.ar    1  UNL1        0.0212
      4 C         138.3370  140.2622  163.5061 C.ar    1  UNL1        0.0754
      5 C         139.0104  140.2093  164.8454 C.ar    1  UNL1        0.0382
      6 C         139.2741  141.4769  165.6029 C.ar    1  UNL1        0.1313
      7 N         138.8644  142.7973  165.0210 N.ar    1  UNL1       -0.2325
      8 N         139.9475  141.4240  166.9422 N.pl3   1  UNL1       -0.2922
      9 C         139.9383  140.2599  167.8882 C.3     1  UNL1        0.0933
     10 C         140.7333  140.6422  169.1013 C.3     1  UNL1        0.0383
     11 C         141.2339  142.0425  168.9051 C.3     1  UNL1        0.1128
     12 C         140.7482  142.5257  167.5706 C.3     1  UNL1        0.1072
     13 C         142.0729  142.8228  169.8733 C.1     1  UNL1        0.0739
     14 N         142.9119  143.6030  170.8414 N.1     1  UNL1       -0.1958
     15 C         138.0734  138.9945  162.7487 C.3     1  UNL1        0.4187
     16 F         137.8097  137.7269  161.9913 F       1  UNL1       -0.1659
     17 F         138.6273  138.1965  163.8916 F       1  UNL1       -0.1659
     18 F         137.5194  139.7926  161.6058 F       1  UNL1       -0.1659
     19 O         138.6742  144.8656  162.1149 O.3     1  UNL1       -0.3470
     20 C         140.1630  144.8234  162.2925 C.3     1  UNL1        0.1467
     21 C         141.6508  145.0099  156.7614 C.3     1  UNL1        0.0896
     22 N         141.4469  144.7900  158.2311 N.3     1  UNL1       -0.2715
     23 C         142.3149  143.8160  158.9713 C.3     1  UNL1        0.0725
     24 C         142.1110  143.5962  160.4410 C.3     1  UNL1        0.0238
     25 C         141.0392  144.3504  161.1706 C.3     1  UNL1        0.0489
     26 C         140.1712  145.3244  160.4304 C.3     1  UNL1        0.0238
     27 C         140.3751  145.5443  158.9606 C.3     1  UNL1        0.0725
     28 C         141.6029  143.5406  162.3004 C.ar    1  UNL1       -0.0202
     29 C         142.1485  144.2282  163.5167 C.ar    1  UNL1       -0.0019
     30 C         142.7122  143.4185  164.6465 C.ar    1  UNL1        0.0293
     31 C         142.7302  141.9211  164.5600 C.ar    1  UNL1        0.1401
     32 F         143.2939  141.1113  165.6899 F       1  UNL1       -0.2042
     33 C         142.1846  141.2334  163.3437 C.ar    1  UNL1        0.0293
     34 C         141.6209  142.0432  162.2139 C.ar    1  UNL1       -0.0019
@<TRIPOS>BOND
     1    21    22    1
     2    22    23    1
     3    23    24    1
     4    24    25    1
     5    25    20    1
     6    20    19    1
     7    19     1    1
     8     1     2    1
     9     2     3   ar
    10     3     4   ar
    11     4    15    1
    12    15    16    1
    13    15    17    1
    14    15    18    1
    15     4     5   ar
    16     5     6   ar
    17     6     8    1
    18     8     9    1
    19     9    10    1
    20    10    11    1
    21    11    13    1
    22    13    14    3
    23    11    12    1
    24     6     7   ar
    25    25    28    1
    26    28    29   ar
    27    29    30   ar
    28    30    31   ar
    29    31    32    1
    30    31    33   ar
    31    33    34   ar
    32    25    26    1
    33    26    27    1
    34    27    22    1
    35     7     2   ar
    36    34    28   ar
    37    12     8    1
@<TRIPOS>MOLECULE
*****
 34 37 0 0 0
SMALL
GASTEIGER

@<TRIPOS>ATOM
      1 C         140.8203  137.3203  163.2260 C.3     1  UNL1        0.1875
      2 C         140.8499  138.5277  164.1156 C.ar    1  UNL1        0.0901
      3 C         141.5435  138.4636  165.4441 C.ar    1  UNL1        0.0212
      4 C         141.5730  139.6711  166.3336 C.ar    1  UNL1        0.0754
      5 C         140.9090  140.9424  165.8947 C.ar    1  UNL1        0.0382
      6 C         140.2154  141.0065  164.5662 C.ar    1  UNL1        0.1313
      7 N         140.1859  139.7991  163.6766 N.ar    1  UNL1       -0.2325
      8 N         139.5514  142.2778  164.1273 N.pl3   1  UNL1       -0.2922
      9 C         138.2201  142.7849  164.5971 C.3     1  UNL1        0.0933
     10 C         137.9479  144.0858  163.9018 C.3     1  UNL1        0.0383
     11 C         139.1110  144.3828  163.0022 C.3     1  UNL1        0.1128
     12 C         140.1020  143.2653  163.1416 C.3     1  UNL1        0.1072
     13 C         139.2574  145.5859  162.1184 C.1     1  UNL1        0.0739
     14 N         139.4037  146.7890  161.2347 N.1     1  UNL1       -0.1958
     15 C         142.2666  139.6072  167.6622 C.3     1  UNL1        0.4187
     16 F         142.9602  139.5432  168.9906 F       1  UNL1       -0.1659
     17 F         143.3533  138.7706  167.0545 F       1  UNL1       -0.1659
     18 F         141.1798  140.4437  168.2697 F       1  UNL1       -0.1659
     19 O         141.6490  137.2892  161.9760 O.3     1  UNL1       -0.3470
     20 C         142.9741  137.9909  161.9370 C.3     1  UNL1        0.1467
     21 C         143.2872  139.0396  156.3117 C.3     1  UNL1        0.0896
     22 N         143.2893  139.0025  157.8113 N.3     1  UNL1       -0.2715
     23 C         143.7229  140.2085  158.5907 C.3     1  UNL1        0.0725
     24 C         143.7250  140.1714  160.0903 C.3     1  UNL1        0.0238
     25 C         143.2935  138.9283  160.8103 C.3     1  UNL1        0.0489
     26 C         142.8600  137.7223  160.0309 C.3     1  UNL1        0.0238
     27 C         142.8579  137.7594  158.5313 C.3     1  UNL1        0.0725
     28 C         143.6162  139.8088  161.9811 C.ar    1  UNL1       -0.0202
     29 C         143.1550  141.2360  161.9958 C.ar    1  UNL1       -0.0019
     30 C         143.4776  142.1165  163.1665 C.ar    1  UNL1        0.0293
     31 C         144.2615  141.5697  164.3226 C.ar    1  UNL1        0.1401
     32 F         144.5841  142.4501  165.4934 F       1  UNL1       -0.2042
     33 C         144.7227  140.1424  164.3080 C.ar    1  UNL1        0.0293
     34 C         144.4000  139.2619  163.1372 C.ar    1  UNL1       -0.0019
@<TRIPOS>BOND
     1    21    22    1
     2    22    23    1
     3    23    24    1
     4    24    25    1
     5    25    20    1
     6    20    19    1
     7    19     1    1
     8     1     2    1
     9     2     3   ar
    10     3     4   ar
    11     4    15    1
    12    15    16    1
    13    15    17    1
    14    15    18    1
    15     4     5   ar
    16     5     6   ar
    17     6     8    1
    18     8     9    1
    19     9    10    1
    20    10    11    1
    21    11    13    1
    22    13    14    3
    23    11    12    1
    24     6     7   ar
    25    25    28    1
    26    28    29   ar
    27    29    30   ar
    28    30    31   ar
    29    31    32    1
    30    31    33   ar
    31    33    34   ar
    32    25    26    1
    33    26    27    1
    34    27    22    1
    35     7     2   ar
    36    34    28   ar
    37    12     8    1
@<TRIPOS>MOLECULE
*****
 34 37 0 0 0
SMALL
GASTEIGER

@<TRIPOS>ATOM
      1 C         143.6301  145.0489  163.9139 C.3     1  UNL1        0.1875
      2 C         142.2930  144.8951  163.2517 C.ar    1  UNL1        0.0901
      3 C         141.0495  144.8013  164.0855 C.ar    1  UNL1        0.0212
      4 C         139.7124  144.6475  163.4233 C.ar    1  UNL1        0.0754
      5 C         139.6187  144.5874  161.9275 C.ar    1  UNL1        0.0382
      6 C         140.8622  144.6812  161.0937 C.ar    1  UNL1        0.1313
      7 N         142.1993  144.8350  161.7558 N.ar    1  UNL1       -0.2325
      8 N         140.7685  144.6212  159.5979 N.pl3   1  UNL1       -0.2922
      9 C         141.0777  143.4286  158.7422 C.3     1  UNL1        0.0933
     10 C         140.8495  143.8134  157.3106 C.3     1  UNL1        0.0383
     11 C         140.3991  145.2439  157.2813 C.3     1  UNL1        0.1128
     12 C         140.3491  145.7431  158.6950 C.3     1  UNL1        0.1072
     13 C         140.0586  146.0362  156.0539 C.1     1  UNL1        0.0739
     14 N         139.7181  146.8284  154.8266 N.1     1  UNL1       -0.1958
     15 C         138.4689  144.5537  164.2570 C.3     1  UNL1        0.4187
     16 F         137.2254  144.4598  165.0906 F       1  UNL1       -0.1659
     17 F         137.7309  143.9672  163.0901 F       1  UNL1       -0.1659
     18 F         139.2069  145.1401  165.4237 F       1  UNL1       -0.1659
     19 O         144.4544  143.8361  164.2298 O.3     1  UNL1       -0.3470
     20 C         144.0206  142.8965  165.3156 C.3     1  UNL1        0.1467
     21 C         143.9368  138.2404  161.9754 C.3     1  UNL1        0.0896
     22 N         143.7654  139.3493  162.9710 N.3     1  UNL1       -0.2715
     23 C         142.6973  139.2569  164.0201 C.3     1  UNL1        0.0725
     24 C         142.5260  140.3657  165.0156 C.3     1  UNL1        0.0238
     25 C         143.4227  141.5669  164.9621 C.3     1  UNL1        0.0489
     26 C         144.4908  141.6593  163.9130 C.3     1  UNL1        0.0238
     27 C         144.6621  140.5505  162.9175 C.3     1  UNL1        0.0725
     28 C         142.5622  141.9363  166.1340 C.ar    1  UNL1       -0.0202
     29 C         141.0760  142.0506  165.9667 C.ar    1  UNL1       -0.0019
     30 C         140.2155  142.4199  167.1385 C.ar    1  UNL1        0.0293
     31 C         140.8414  142.6749  168.4776 C.ar    1  UNL1        0.1401
     32 F         139.9809  143.0442  169.6495 F       1  UNL1       -0.2042
     33 C         142.3276  142.5605  168.6450 C.ar    1  UNL1        0.0293
     34 C         143.1881  142.1912  167.4731 C.ar    1  UNL1       -0.0019
@<TRIPOS>BOND
     1    21    22    1
     2    22    23    1
     3    23    24    1
     4    24    25    1
     5    25    20    1
     6    20    19    1
     7    19     1    1
     8     1     2    1
     9     2     3   ar
    10     3     4   ar
    11     4    15    1
    12    15    16    1
    13    15    17    1
    14    15    18    1
    15     4     5   ar
    16     5     6   ar
    17     6     8    1
    18     8     9    1
    19     9    10    1
    20    10    11    1
    21    11    13    1
    22    13    14    3
    23    11    12    1
    24     6     7   ar
    25    25    28    1
    26    28    29   ar
    27    29    30   ar
    28    30    31   ar
    29    31    32    1
    30    31    33   ar
    31    33    34   ar
    32    25    26    1
    33    26    27    1
    34    27    22    1
    35     7     2   ar
    36    34    28   ar
    37    12     8    1
