@<TRIPOS>MOLECULE
*****
 37 41 0 0 0
SMALL
GASTEIGER

@<TRIPOS>ATOM
      1 C         140.5522  139.4540  159.7103 C.ar    1  UNL1        0.1233
      2 C         140.8473  139.1085  161.1399 C.ar    1  UNL1        0.1180
      3 N         140.4727  140.2874  161.9885 N.ar    1  UNL1       -0.2233
      4 N         139.9461  141.3613  161.0833 N.ar    1  UNL1       -0.0634
      5 N         139.9953  140.8463  159.6754 N.ar    1  UNL1       -0.1287
      6 C         140.6020  140.3766  163.4802 C.3     1  UNL1        0.1834
      7 C         141.8981  140.9346  163.9889 C.3     1  UNL1        0.0382
      8 C         142.3303  141.1498  165.4091 C.3     1  UNL1        0.0260
      9 C         143.7008  141.7317  165.5912 C.3     1  UNL1        0.0048
     10 C         141.5733  140.8602  166.6713 C.ar    1  UNL1       -0.0087
     11 C         142.3734  141.2256  167.8863 C.ar    1  UNL1       -0.0030
     12 C         141.7973  141.0146  169.2550 C.ar    1  UNL1       -0.0002
     13 C         140.4210  140.4382  169.4087 C.ar    1  UNL1        0.0013
     14 C         139.6209  140.0727  168.1938 C.ar    1  UNL1        0.0146
     15 C         140.1971  140.2837  166.8250 C.ar    1  UNL1        0.0502
     16 N         139.2380  139.8546  165.7545 N.am    1  UNL1       -0.2492
     17 C         139.4181  139.8959  164.2660 C.2     1  UNL1        0.2520
     18 O         138.3624  139.4287  163.3083 O.2     1  UNL1       -0.2724
     19 C         137.9250  139.3124  166.2364 C.3     1  UNL1        0.2016
     20 C         137.7946  137.8580  166.5795 C.3     1  UNL1        0.4160
     21 F         137.6643  136.4036  166.9226 F       1  UNL1       -0.1682
     22 F         138.6999  137.3345  165.5041 F       1  UNL1       -0.1682
     23 F         136.8665  138.2067  167.7051 F       1  UNL1       -0.1682
     24 C         139.8341  137.2387  156.4969 C.ar    1  UNL1        0.1547
     25 C         139.6112  138.1292  157.6831 C.ar    1  UNL1        0.0400
     26 C         140.7750  138.5634  158.5241 C.ar    1  UNL1        0.0241
     27 C         142.1615  138.1070  158.1788 C.ar    1  UNL1        0.0033
     28 C         142.3843  137.2164  156.9925 C.ar    1  UNL1        0.0207
     29 C         141.2206  136.7823  156.1516 C.ar    1  UNL1        0.0994
     30 N         141.4434  135.8917  154.9653 N.ar    1  UNL1       -0.2839
     31 C         141.6299  136.3426  153.5468 C.ar    1  UNL1        0.1826
     32 N         141.8206  135.1234  152.6942 N.ar    1  UNL1       -0.2280
     33 C         141.7520  133.9190  153.5855 C.ar    1  UNL1        0.0786
     34 C         141.8919  132.4905  153.1497 C.3     1  UNL1        0.0538
     35 C         141.5189  134.3938  154.9891 C.ar    1  UNL1        0.0963
     36 C         138.1677  137.6917  154.5557 C.3     1  UNL1        0.2525
     37 O         138.6703  136.8046  155.6559 O.3     1  UNL1       -0.4700
@<TRIPOS>BOND
     1    36    37    1
     2    37    24    1
     3    24    25   ar
     4    25    26   ar
     5    26     1    1
     6     1     2   ar
     7     2     3   ar
     8     6     3    1
     9     6     7    1
    10     7     8    1
    11     8     9    1
    12     8    10    1
    13    10    11   ar
    14    11    12   ar
    15    12    13   ar
    16    13    14   ar
    17    14    15   ar
    18    15    16    1
    19    16    19    1
    20    19    20    1
    21    20    21    1
    22    20    22    1
    23    20    23    1
    24    16    17   am
    25    17    18    2
    26     3     4   ar
    27     4     5   ar
    28    26    27   ar
    29    27    28   ar
    30    28    29   ar
    31    29    30    1
    32    30    31   ar
    33    31    32   ar
    34    32    33   ar
    35    33    34    1
    36    33    35   ar
    37    29    24   ar
    38    35    30   ar
    39     5     1   ar
    40    17     6    1
    41    15    10   ar
@<TRIPOS>MOLECULE
*****
 37 41 0 0 0
SMALL
GASTEIGER

@<TRIPOS>ATOM
      1 C         140.3175  139.5668  159.8934 C.ar    1  UNL1        0.1233
      2 C         140.6723  139.3365  161.3326 C.ar    1  UNL1        0.1180
      3 N         140.1592  140.4998  162.1284 N.ar    1  UNL1       -0.2233
      4 N         139.4874  141.4491  161.1811 N.ar    1  UNL1       -0.0634
      5 N         139.5852  140.8725  159.7998 N.ar    1  UNL1       -0.1287
      6 C         140.2943  140.6819  163.6111 C.3     1  UNL1        0.1834
      7 C         139.3518  139.8753  164.4544 C.3     1  UNL1        0.0382
      8 C         139.2363  139.8341  165.9494 C.3     1  UNL1        0.0260
      9 C         138.1832  138.9163  166.4957 C.3     1  UNL1        0.0048
     10 C         140.0347  140.5893  166.9704 C.ar    1  UNL1       -0.0087
     11 C         139.5961  140.2555  168.3654 C.ar    1  UNL1       -0.0030
     12 C         140.2687  140.9047  169.5385 C.ar    1  UNL1       -0.0002
     13 C         141.3797  141.8877  169.3166 C.ar    1  UNL1        0.0013
     14 C         141.8183  142.2214  167.9215 C.ar    1  UNL1        0.0146
     15 C         141.1458  141.5723  166.7484 C.ar    1  UNL1        0.0502
     16 N         141.7329  142.0428  165.4507 N.am    1  UNL1       -0.2492
     17 C         141.3540  141.6466  164.0545 C.2     1  UNL1        0.2520
     18 O         142.0353  142.2046  162.8403 O.2     1  UNL1       -0.2724
     19 C         142.8462  143.0416  165.5643 C.3     1  UNL1        0.2016
     20 C         144.2169  142.6974  165.0613 C.3     1  UNL1        0.4160
     21 F         145.5874  142.3532  164.5584 F       1  UNL1       -0.1682
     22 F         144.1768  141.2380  165.4055 F       1  UNL1       -0.1682
     23 F         144.4255  144.1256  164.6528 F       1  UNL1       -0.1682
     24 C         139.8701  137.2807  156.6804 C.ar    1  UNL1        0.1547
     25 C         139.5488  138.1955  157.8249 C.ar    1  UNL1        0.0400
     26 C         140.6387  138.6519  158.7489 C.ar    1  UNL1        0.0241
     27 C         142.0499  138.1936  158.5284 C.ar    1  UNL1        0.0033
     28 C         142.3711  137.2788  157.3838 C.ar    1  UNL1        0.0207
     29 C         141.2812  136.8224  156.4599 C.ar    1  UNL1        0.0994
     30 N         141.6025  135.9075  155.3153 N.ar    1  UNL1       -0.2839
     31 C         141.7677  136.3143  153.8810 C.ar    1  UNL1        0.1826
     32 N         142.0822  135.0835  153.0835 N.ar    1  UNL1       -0.2280
     33 C         142.1114  133.9160  154.0248 C.ar    1  UNL1        0.0786
     34 C         142.3885  132.4897  153.6522 C.3     1  UNL1        0.0538
     35 C         141.8149  134.4253  155.4042 C.ar    1  UNL1        0.0963
     36 C         138.3124  137.7202  154.6480 C.3     1  UNL1        0.2525
     37 O         138.7802  136.8243  155.7564 O.3     1  UNL1       -0.4700
@<TRIPOS>BOND
     1    36    37    1
     2    37    24    1
     3    24    25   ar
     4    25    26   ar
     5    26     1    1
     6     1     2   ar
     7     2     3   ar
     8     6     3    1
     9     6     7    1
    10     7     8    1
    11     8     9    1
    12     8    10    1
    13    10    11   ar
    14    11    12   ar
    15    12    13   ar
    16    13    14   ar
    17    14    15   ar
    18    15    16    1
    19    16    19    1
    20    19    20    1
    21    20    21    1
    22    20    22    1
    23    20    23    1
    24    16    17   am
    25    17    18    2
    26     3     4   ar
    27     4     5   ar
    28    26    27   ar
    29    27    28   ar
    30    28    29   ar
    31    29    30    1
    32    30    31   ar
    33    31    32   ar
    34    32    33   ar
    35    33    34    1
    36    33    35   ar
    37    29    24   ar
    38    35    30   ar
    39     5     1   ar
    40    17     6    1
    41    15    10   ar
@<TRIPOS>MOLECULE
*****
 37 41 0 0 0
SMALL
GASTEIGER

@<TRIPOS>ATOM
      1 C         142.7698  138.1856  159.3460 C.ar    1  UNL1        0.1233
      2 C         142.1059  138.1399  160.6903 C.ar    1  UNL1        0.1180
      3 N         142.6707  139.2514  161.5243 N.ar    1  UNL1       -0.2233
      4 N         143.6837  139.9841  160.6954 N.ar    1  UNL1       -0.0634
      5 N         143.7449  139.3254  159.3492 N.ar    1  UNL1       -0.1287
      6 C         142.2895  139.5737  162.9388 C.3     1  UNL1        0.1834
      7 C         143.0635  138.8521  164.0020 C.3     1  UNL1        0.0382
      8 C         142.9238  138.9536  165.4920 C.3     1  UNL1        0.0260
      9 C         143.8555  138.0932  166.2931 C.3     1  UNL1        0.0048
     10 C         141.9756  139.8016  166.2869 C.ar    1  UNL1       -0.0087
     11 C         142.1668  139.6027  167.7613 C.ar    1  UNL1       -0.0030
     12 C         141.3153  140.3598  168.7369 C.ar    1  UNL1       -0.0002
     13 C         140.2727  141.3158  168.2380 C.ar    1  UNL1        0.0013
     14 C         140.0815  141.5148  166.7637 C.ar    1  UNL1        0.0146
     15 C         140.9330  140.7577  165.7881 C.ar    1  UNL1        0.0502
     16 N         140.5810  141.1018  164.3712 N.am    1  UNL1       -0.2492
     17 C         141.1846  140.5749  163.1031 C.2     1  UNL1        0.2520
     18 O         140.7270  141.0140  161.7438 O.2     1  UNL1       -0.2724
     19 C         139.4796  142.1056  164.1996 C.3     1  UNL1        0.2016
     20 C         138.1603  141.6808  163.6259 C.3     1  UNL1        0.4160
     21 F         136.8411  141.2560  163.0522 F       1  UNL1       -0.1682
     22 F         137.9984  140.4337  164.4435 F       1  UNL1       -0.1682
     23 F         138.1615  142.8851  162.7316 F       1  UNL1       -0.1682
     24 C         143.0834  135.0968  156.8741 C.ar    1  UNL1        0.1547
     25 C         143.3482  136.0274  158.0203 C.ar    1  UNL1        0.0400
     26 C         142.5051  137.2550  158.1999 C.ar    1  UNL1        0.0241
     27 C         141.3972  137.5518  157.2332 C.ar    1  UNL1        0.0033
     28 C         141.1324  136.6211  156.0871 C.ar    1  UNL1        0.0207
     29 C         141.9755  135.3937  155.9075 C.ar    1  UNL1        0.0994
     30 N         141.7107  134.4630  154.7613 N.ar    1  UNL1       -0.2839
     31 C         141.9070  134.7764  153.3076 C.ar    1  UNL1        0.1826
     32 N         141.5207  133.5626  152.5155 N.ar    1  UNL1       -0.2280
     33 C         141.0858  132.4990  153.4795 C.ar    1  UNL1        0.0786
     34 C         140.6159  131.1209  153.1190 C.3     1  UNL1        0.0538
     35 C         141.2032  133.0555  154.8676 C.ar    1  UNL1        0.0963
     36 C         144.4830  133.1596  157.8933 C.3     1  UNL1        0.2525
     37 O         143.9266  133.8692  156.6946 O.3     1  UNL1       -0.4700
@<TRIPOS>BOND
     1    36    37    1
     2    37    24    1
     3    24    25   ar
     4    25    26   ar
     5    26     1    1
     6     1     2   ar
     7     2     3   ar
     8     6     3    1
     9     6     7    1
    10     7     8    1
    11     8     9    1
    12     8    10    1
    13    10    11   ar
    14    11    12   ar
    15    12    13   ar
    16    13    14   ar
    17    14    15   ar
    18    15    16    1
    19    16    19    1
    20    19    20    1
    21    20    21    1
    22    20    22    1
    23    20    23    1
    24    16    17   am
    25    17    18    2
    26     3     4   ar
    27     4     5   ar
    28    26    27   ar
    29    27    28   ar
    30    28    29   ar
    31    29    30    1
    32    30    31   ar
    33    31    32   ar
    34    32    33   ar
    35    33    34    1
    36    33    35   ar
    37    29    24   ar
    38    35    30   ar
    39     5     1   ar
    40    17     6    1
    41    15    10   ar
@<TRIPOS>MOLECULE
*****
 37 41 0 0 0
SMALL
GASTEIGER

@<TRIPOS>ATOM
      1 C         142.9274  137.4468  157.9356 C.ar    1  UNL1        0.1233
      2 C         142.6181  137.6555  159.3885 C.ar    1  UNL1        0.1180
      3 N         143.0079  139.0585  159.7486 N.ar    1  UNL1       -0.2233
      4 N         143.5581  139.7169  158.5183 N.ar    1  UNL1       -0.0634
      5 N         143.5083  138.7209  157.3978 N.ar    1  UNL1       -0.1287
      6 C         142.8714  139.6918  161.1015 C.3     1  UNL1        0.1834
      7 C         144.1276  140.2770  161.6758 C.3     1  UNL1        0.0382
      8 C         144.3193  140.9710  162.9917 C.3     1  UNL1        0.0260
      9 C         145.7122  141.4478  163.2790 C.3     1  UNL1        0.0048
     10 C         143.3025  141.2515  164.0582 C.ar    1  UNL1       -0.0087
     11 C         143.9142  141.9722  165.2227 C.ar    1  UNL1       -0.0030
     12 C         143.0662  142.3484  166.4013 C.ar    1  UNL1       -0.0002
     13 C         141.6063  142.0040  166.4154 C.ar    1  UNL1        0.0013
     14 C         140.9945  141.2833  165.2508 C.ar    1  UNL1        0.0146
     15 C         141.8426  140.9070  164.0722 C.ar    1  UNL1        0.0502
     16 N         141.0391  140.1971  163.0231 N.am    1  UNL1       -0.2492
     17 C         141.4969  139.6563  161.7011 C.2     1  UNL1        0.2520
     18 O         140.5725  138.9629  160.7447 O.2     1  UNL1       -0.2724
     19 C         139.5855  140.0023  163.3379 C.3     1  UNL1        0.2016
     20 C         139.0467  138.6216  163.5693 C.3     1  UNL1        0.4160
     21 F         138.5081  137.2409  163.8007 F       1  UNL1       -0.1682
     22 F         140.1130  138.1664  164.5210 F       1  UNL1       -0.1682
     23 F         137.9063  138.9106  162.6388 F       1  UNL1       -0.1682
     24 C         143.1284  133.6481  156.8047 C.ar    1  UNL1        0.1547
     25 C         143.3595  134.9093  157.5831 C.ar    1  UNL1        0.0400
     26 C         142.6963  136.1856  157.1573 C.ar    1  UNL1        0.0241
     27 C         141.8019  136.2006  155.9532 C.ar    1  UNL1        0.0033
     28 C         141.5709  134.9393  155.1749 C.ar    1  UNL1        0.0207
     29 C         142.2341  133.6631  155.6006 C.ar    1  UNL1        0.0994
     30 N         142.0029  132.4018  154.8222 N.ar    1  UNL1       -0.2839
     31 C         142.9472  131.7938  153.8279 C.ar    1  UNL1        0.1826
     32 N         142.3148  130.5434  153.2928 N.ar    1  UNL1       -0.2280
     33 C         140.9797  130.3786  153.9562 C.ar    1  UNL1        0.0786
     34 C         140.0078  129.2614  153.7165 C.3     1  UNL1        0.0538
     35 C         140.7869  131.5272  154.9015 C.ar    1  UNL1        0.0963
     36 C         145.1124  132.4135  157.9404 C.3     1  UNL1        0.2525
     37 O         143.7916  132.3719  157.2305 O.3     1  UNL1       -0.4700
@<TRIPOS>BOND
     1    36    37    1
     2    37    24    1
     3    24    25   ar
     4    25    26   ar
     5    26     1    1
     6     1     2   ar
     7     2     3   ar
     8     6     3    1
     9     6     7    1
    10     7     8    1
    11     8     9    1
    12     8    10    1
    13    10    11   ar
    14    11    12   ar
    15    12    13   ar
    16    13    14   ar
    17    14    15   ar
    18    15    16    1
    19    16    19    1
    20    19    20    1
    21    20    21    1
    22    20    22    1
    23    20    23    1
    24    16    17   am
    25    17    18    2
    26     3     4   ar
    27     4     5   ar
    28    26    27   ar
    29    27    28   ar
    30    28    29   ar
    31    29    30    1
    32    30    31   ar
    33    31    32   ar
    34    32    33   ar
    35    33    34    1
    36    33    35   ar
    37    29    24   ar
    38    35    30   ar
    39     5     1   ar
    40    17     6    1
    41    15    10   ar
@<TRIPOS>MOLECULE
*****
 37 41 0 0 0
SMALL
GASTEIGER

@<TRIPOS>ATOM
      1 C         142.6142  137.6847  157.8071 C.ar    1  UNL1        0.1233
      2 C         141.8383  138.0918  159.0247 C.ar    1  UNL1        0.1180
      3 N         142.3676  139.4158  159.4904 N.ar    1  UNL1       -0.2233
      4 N         143.4705  139.8270  158.5607 N.ar    1  UNL1       -0.0634
      5 N         143.6230  138.7572  157.5204 N.ar    1  UNL1       -0.1287
      6 C         141.8795  140.1923  160.6774 C.3     1  UNL1        0.1834
      7 C         140.6178  140.9761  160.4683 C.3     1  UNL1        0.0382
      8 C         139.8828  141.8435  161.4467 C.3     1  UNL1        0.0260
      9 C         138.6380  142.4999  160.9274 C.3     1  UNL1        0.0048
     10 C         140.2277  142.1413  162.8758 C.ar    1  UNL1       -0.0087
     11 C         139.2224  143.0617  163.5019 C.ar    1  UNL1       -0.0030
     12 C         139.3825  143.4861  164.9317 C.ar    1  UNL1       -0.0002
     13 C         140.5478  142.9900  165.7353 C.ar    1  UNL1        0.0013
     14 C         141.5532  142.0696  165.1092 C.ar    1  UNL1        0.0146
     15 C         141.3931  141.6452  163.6795 C.ar    1  UNL1        0.0502
     16 N         142.5013  140.7288  163.2524 N.am    1  UNL1       -0.2492
     17 C         142.7178  140.0822  161.9164 C.2     1  UNL1        0.2520
     18 O         143.8821  139.1805  161.6313 O.2     1  UNL1       -0.2724
     19 C         143.5288  140.4180  164.3001 C.3     1  UNL1        0.2016
     20 C         144.9395  140.9001  164.1334 C.3     1  UNL1        0.4160
     21 F         146.3500  141.3823  163.9668 F       1  UNL1       -0.1682
     22 F         144.6119  142.3439  163.8918 F       1  UNL1       -0.1682
     23 F         145.4427  139.5047  164.3564 F       1  UNL1       -0.1682
     24 C         143.0250  133.9448  156.5447 C.ar    1  UNL1        0.1547
     25 C         143.2232  135.2033  157.3364 C.ar    1  UNL1        0.0400
     26 C         142.4161  136.4262  157.0154 C.ar    1  UNL1        0.0241
     27 C         141.4108  136.3906  155.9028 C.ar    1  UNL1        0.0033
     28 C         141.2126  135.1320  155.1110 C.ar    1  UNL1        0.0207
     29 C         142.0197  133.9092  155.4320 C.ar    1  UNL1        0.0994
     30 N         141.8215  132.6506  154.6402 N.ar    1  UNL1       -0.2839
     31 C         142.5626  132.2672  153.3937 C.ar    1  UNL1        0.1826
     32 N         142.0465  130.9342  152.9391 N.ar    1  UNL1       -0.2280
     33 C         140.9865  130.4937  153.9046 C.ar    1  UNL1        0.0786
     34 C         140.2031  129.2167  153.8317 C.3     1  UNL1        0.0538
     35 C         140.8474  131.5545  154.9560 C.ar    1  UNL1        0.0963
     36 C         144.8500  132.7627  157.9667 C.3     1  UNL1        0.2525
     37 O         143.8322  132.7219  156.8657 O.3     1  UNL1       -0.4700
@<TRIPOS>BOND
     1    36    37    1
     2    37    24    1
     3    24    25   ar
     4    25    26   ar
     5    26     1    1
     6     1     2   ar
     7     2     3   ar
     8     6     3    1
     9     6     7    1
    10     7     8    1
    11     8     9    1
    12     8    10    1
    13    10    11   ar
    14    11    12   ar
    15    12    13   ar
    16    13    14   ar
    17    14    15   ar
    18    15    16    1
    19    16    19    1
    20    19    20    1
    21    20    21    1
    22    20    22    1
    23    20    23    1
    24    16    17   am
    25    17    18    2
    26     3     4   ar
    27     4     5   ar
    28    26    27   ar
    29    27    28   ar
    30    28    29   ar
    31    29    30    1
    32    30    31   ar
    33    31    32   ar
    34    32    33   ar
    35    33    34    1
    36    33    35   ar
    37    29    24   ar
    38    35    30   ar
    39     5     1   ar
    40    17     6    1
    41    15    10   ar
@<TRIPOS>MOLECULE
*****
 37 41 0 0 0
SMALL
GASTEIGER

@<TRIPOS>ATOM
      1 C         143.4908  141.0160  159.7352 C.ar    1  UNL1        0.1233
      2 C         143.6961  141.2787  161.1977 C.ar    1  UNL1        0.1180
      3 N         142.4896  140.7750  161.9330 N.ar    1  UNL1       -0.2233
      4 N         141.5386  140.2011  160.9249 N.ar    1  UNL1       -0.0634
      5 N         142.1574  140.3500  159.5666 N.ar    1  UNL1       -0.1287
      6 C         142.2723  140.8348  163.4160 C.3     1  UNL1        0.1834
      7 C         142.8709  139.7099  164.2073 C.3     1  UNL1        0.0382
      8 C         142.8301  139.4840  165.6896 C.3     1  UNL1        0.0260
      9 C         143.5316  138.2521  166.1798 C.3     1  UNL1        0.0048
     10 C         142.1807  140.3271  166.7467 C.ar    1  UNL1       -0.0087
     11 C         142.3770  139.7402  168.1131 C.ar    1  UNL1       -0.0030
     12 C         141.8042  140.4307  169.3152 C.ar    1  UNL1       -0.0002
     13 C         141.0351  141.7080  169.1510 C.ar    1  UNL1        0.0013
     14 C         140.8388  142.2948  167.7847 C.ar    1  UNL1        0.0146
     15 C         141.4115  141.6044  166.5825 C.ar    1  UNL1        0.0502
     16 N         141.1020  142.3540  165.3207 N.am    1  UNL1       -0.2492
     17 C         141.4850  142.0116  163.9114 C.2     1  UNL1        0.2520
     18 O         141.1018  142.8630  162.7374 O.2     1  UNL1       -0.2724
     19 C         140.3038  143.6126  165.4906 C.3     1  UNL1        0.2016
     20 C         138.8609  143.6466  165.0818 C.3     1  UNL1        0.4160
     21 F         137.4181  143.6805  164.6730 F       1  UNL1       -0.1682
     22 F         138.5898  142.1804  165.2456 F       1  UNL1       -0.1682
     23 F         138.9568  145.1280  164.8664 F       1  UNL1       -0.1682
     24 C         145.4508  140.8688  156.2875 C.ar    1  UNL1        0.1547
     25 C         144.4911  140.5257  157.3881 C.ar    1  UNL1        0.0400
     26 C         144.4505  141.3591  158.6346 C.ar    1  UNL1        0.0241
     27 C         145.3694  142.5356  158.7805 C.ar    1  UNL1        0.0033
     28 C         146.3291  142.8787  157.6799 C.ar    1  UNL1        0.0207
     29 C         146.3697  142.0453  156.4334 C.ar    1  UNL1        0.0994
     30 N         147.3294  142.3885  155.3328 N.ar    1  UNL1       -0.2839
     31 C         147.0912  143.3796  154.2323 C.ar    1  UNL1        0.1826
     32 N         148.3103  143.4044  153.3589 N.ar    1  UNL1       -0.2280
     33 C         149.3021  142.4287  153.9195 C.ar    1  UNL1        0.0786
     34 C         150.6614  142.1327  153.3586 C.3     1  UNL1        0.0538
     35 C         148.6959  141.8008  155.1394 C.ar    1  UNL1        0.0963
     36 C         144.8931  138.6599  155.0386 C.3     1  UNL1        0.2525
     37 O         145.4914  140.0354  155.0410 O.3     1  UNL1       -0.4700
@<TRIPOS>BOND
     1    36    37    1
     2    37    24    1
     3    24    25   ar
     4    25    26   ar
     5    26     1    1
     6     1     2   ar
     7     2     3   ar
     8     6     3    1
     9     6     7    1
    10     7     8    1
    11     8     9    1
    12     8    10    1
    13    10    11   ar
    14    11    12   ar
    15    12    13   ar
    16    13    14   ar
    17    14    15   ar
    18    15    16    1
    19    16    19    1
    20    19    20    1
    21    20    21    1
    22    20    22    1
    23    20    23    1
    24    16    17   am
    25    17    18    2
    26     3     4   ar
    27     4     5   ar
    28    26    27   ar
    29    27    28   ar
    30    28    29   ar
    31    29    30    1
    32    30    31   ar
    33    31    32   ar
    34    32    33   ar
    35    33    34    1
    36    33    35   ar
    37    29    24   ar
    38    35    30   ar
    39     5     1   ar
    40    17     6    1
    41    15    10   ar
@<TRIPOS>MOLECULE
*****
 37 41 0 0 0
SMALL
GASTEIGER

@<TRIPOS>ATOM
      1 C         142.9149  137.3711  157.8009 C.ar    1  UNL1        0.1233
      2 C         142.4944  137.6507  159.2133 C.ar    1  UNL1        0.1180
      3 N         142.9553  139.0330  159.5692 N.ar    1  UNL1       -0.2233
      4 N         143.6607  139.6078  158.3767 N.ar    1  UNL1       -0.0634
      5 N         143.6357  138.5806  157.2838 N.ar    1  UNL1       -0.1287
      6 C         142.7473  139.7201  160.8863 C.3     1  UNL1        0.1834
      7 C         143.7872  139.4492  161.9329 C.3     1  UNL1        0.0382
      8 C         143.8635  139.9785  163.3343 C.3     1  UNL1        0.0260
      9 C         145.0400  139.5158  164.1416 C.3     1  UNL1        0.0048
     10 C         142.9189  140.9094  164.0353 C.ar    1  UNL1       -0.0087
     11 C         143.3659  141.1886  165.4396 C.ar    1  UNL1       -0.0030
     12 C         142.5587  142.0993  166.3166 C.ar    1  UNL1       -0.0002
     13 C         141.3044  142.7307  165.7892 C.ar    1  UNL1        0.0013
     14 C         140.8574  142.4514  164.3849 C.ar    1  UNL1        0.0146
     15 C         141.6646  141.5408  163.5080 C.ar    1  UNL1        0.0502
     16 N         141.0452  141.3973  162.1494 N.am    1  UNL1       -0.2492
     17 C         141.5270  140.5870  160.9826 C.2     1  UNL1        0.2520
     18 O         140.7975  140.5384  159.6728 O.2     1  UNL1       -0.2724
     19 C         139.7761  142.1657  161.9283 C.3     1  UNL1        0.2016
     20 C         139.7509  143.3087  160.9572 C.3     1  UNL1        0.4160
     21 F         139.7257  144.4517  159.9861 F       1  UNL1       -0.1682
     22 F         140.9986  143.9868  161.4404 F       1  UNL1       -0.1682
     23 F         138.4907  142.7659  160.3510 F       1  UNL1       -0.1682
     24 C         143.0386  133.5536  156.7234 C.ar    1  UNL1        0.1547
     25 C         143.2941  134.8203  157.4850 C.ar    1  UNL1        0.0400
     26 C         142.6595  136.1043  157.0393 C.ar    1  UNL1        0.0241
     27 C         141.7694  136.1215  155.8321 C.ar    1  UNL1        0.0033
     28 C         141.5140  134.8548  155.0705 C.ar    1  UNL1        0.0207
     29 C         142.1485  133.5708  155.5161 C.ar    1  UNL1        0.0994
     30 N         141.8930  132.3040  154.7545 N.ar    1  UNL1       -0.2839
     31 C         142.7904  131.7057  153.7120 C.ar    1  UNL1        0.1826
     32 N         142.1473  130.4451  153.2149 N.ar    1  UNL1       -0.2280
     33 C         140.8524  130.2643  153.9500 C.ar    1  UNL1        0.0786
     34 C         139.8845  129.1332  153.7660 C.3     1  UNL1        0.0538
     35 C         140.6952  131.4131  154.9016 C.ar    1  UNL1        0.0963
     36 C         145.1071  131.9854  156.8328 C.3     1  UNL1        0.2525
     37 O         143.6732  132.2695  157.1690 O.3     1  UNL1       -0.4700
@<TRIPOS>BOND
     1    36    37    1
     2    37    24    1
     3    24    25   ar
     4    25    26   ar
     5    26     1    1
     6     1     2   ar
     7     2     3   ar
     8     6     3    1
     9     6     7    1
    10     7     8    1
    11     8     9    1
    12     8    10    1
    13    10    11   ar
    14    11    12   ar
    15    12    13   ar
    16    13    14   ar
    17    14    15   ar
    18    15    16    1
    19    16    19    1
    20    19    20    1
    21    20    21    1
    22    20    22    1
    23    20    23    1
    24    16    17   am
    25    17    18    2
    26     3     4   ar
    27     4     5   ar
    28    26    27   ar
    29    27    28   ar
    30    28    29   ar
    31    29    30    1
    32    30    31   ar
    33    31    32   ar
    34    32    33   ar
    35    33    34    1
    36    33    35   ar
    37    29    24   ar
    38    35    30   ar
    39     5     1   ar
    40    17     6    1
    41    15    10   ar
@<TRIPOS>MOLECULE
*****
 37 41 0 0 0
SMALL
GASTEIGER

@<TRIPOS>ATOM
      1 C         141.0307  139.3971  159.2611 C.ar    1  UNL1        0.1233
      2 C         141.1809  139.1649  160.7353 C.ar    1  UNL1        0.1180
      3 N         140.9731  140.4755  161.4347 N.ar    1  UNL1       -0.2233
      4 N         140.6943  141.5177  160.3926 N.ar    1  UNL1       -0.0634
      5 N         140.7299  140.8513  159.0492 N.ar    1  UNL1       -0.1287
      6 C         141.0333  140.7037  162.9160 C.3     1  UNL1        0.1834
      7 C         139.8412  140.2340  163.6959 C.3     1  UNL1        0.0382
      8 C         139.5991  140.3161  165.1739 C.3     1  UNL1        0.0260
      9 C         138.2943  139.7515  165.6521 C.3     1  UNL1        0.0048
     10 C         140.4893  140.8881  166.2372 C.ar    1  UNL1       -0.0087
     11 C         139.8654  140.7701  167.5961 C.ar    1  UNL1       -0.0030
     12 C         140.5937  141.2834  168.8028 C.ar    1  UNL1       -0.0002
     13 C         141.9459  141.9146  168.6505 C.ar    1  UNL1        0.0013
     14 C         142.5697  142.0326  167.2916 C.ar    1  UNL1        0.0146
     15 C         141.8415  141.5193  166.0849 C.ar    1  UNL1        0.0502
     16 N         142.6374  141.7344  164.8318 N.am    1  UNL1       -0.2492
     17 C         142.2778  141.3715  163.4215 C.2     1  UNL1        0.2520
     18 O         143.1813  141.6503  162.2570 O.2     1  UNL1       -0.2724
     19 C         143.9691  142.4006  165.0130 C.3     1  UNL1        0.2016
     20 C         144.0760  143.8951  164.9410 C.3     1  UNL1        0.4160
     21 F         144.1829  145.3895  164.8689 F       1  UNL1       -0.1682
     22 F         142.9196  144.1166  164.0117 F       1  UNL1       -0.1682
     23 F         145.2543  143.8554  165.8684 F       1  UNL1       -0.1682
     24 C         142.4940  136.4292  157.0702 C.ar    1  UNL1        0.1547
     25 C         142.3660  137.4686  158.1441 C.ar    1  UNL1        0.0400
     26 C         141.1587  138.3577  158.1872 C.ar    1  UNL1        0.0241
     27 C         140.0794  138.2074  157.1565 C.ar    1  UNL1        0.0033
     28 C         140.2074  137.1680  156.0826 C.ar    1  UNL1        0.0207
     29 C         141.4146  136.2789  156.0395 C.ar    1  UNL1        0.0994
     30 N         141.5426  135.2395  154.9655 N.ar    1  UNL1       -0.2839
     31 C         141.9417  135.4879  153.5411 C.ar    1  UNL1        0.1826
     32 N         141.9396  134.1711  152.8228 N.ar    1  UNL1       -0.2280
     33 C         141.5394  133.1088  153.8032 C.ar    1  UNL1        0.0786
     34 C         141.4076  131.6435  153.5108 C.3     1  UNL1        0.0538
     35 C         141.2940  133.7691  155.1276 C.ar    1  UNL1        0.0963
     36 C         143.6988  134.2355  157.7673 C.3     1  UNL1        0.2525
     37 O         143.7013  135.5401  157.0271 O.3     1  UNL1       -0.4700
@<TRIPOS>BOND
     1    36    37    1
     2    37    24    1
     3    24    25   ar
     4    25    26   ar
     5    26     1    1
     6     1     2   ar
     7     2     3   ar
     8     6     3    1
     9     6     7    1
    10     7     8    1
    11     8     9    1
    12     8    10    1
    13    10    11   ar
    14    11    12   ar
    15    12    13   ar
    16    13    14   ar
    17    14    15   ar
    18    15    16    1
    19    16    19    1
    20    19    20    1
    21    20    21    1
    22    20    22    1
    23    20    23    1
    24    16    17   am
    25    17    18    2
    26     3     4   ar
    27     4     5   ar
    28    26    27   ar
    29    27    28   ar
    30    28    29   ar
    31    29    30    1
    32    30    31   ar
    33    31    32   ar
    34    32    33   ar
    35    33    34    1
    36    33    35   ar
    37    29    24   ar
    38    35    30   ar
    39     5     1   ar
    40    17     6    1
    41    15    10   ar
@<TRIPOS>MOLECULE
*****
 37 41 0 0 0
SMALL
GASTEIGER

@<TRIPOS>ATOM
      1 C         138.8077  141.5717  159.9654 C.ar    1  UNL1        0.1233
      2 C         139.4591  140.9215  161.1499 C.ar    1  UNL1        0.1180
      3 N         139.4043  141.8865  162.2969 N.ar    1  UNL1       -0.2233
      4 N         138.7189  143.1332  161.8214 N.ar    1  UNL1       -0.0634
      5 N         138.3502  142.9386  160.3805 N.ar    1  UNL1       -0.1287
      6 C         139.9406  141.6469  163.6771 C.3     1  UNL1        0.1834
      7 C         141.2822  142.2516  163.9681 C.3     1  UNL1        0.0382
      8 C         142.0788  142.1930  165.2377 C.3     1  UNL1        0.0260
      9 C         143.3981  142.9064  165.2116 C.3     1  UNL1        0.0048
     10 C         141.7308  141.5154  166.5299 C.ar    1  UNL1       -0.0087
     11 C         142.8106  141.7011  167.5543 C.ar    1  UNL1       -0.0030
     12 C         142.6597  141.1004  168.9204 C.ar    1  UNL1       -0.0002
     13 C         141.4290  140.3140  169.2621 C.ar    1  UNL1        0.0013
     14 C         140.3492  140.1282  168.2377 C.ar    1  UNL1        0.0146
     15 C         140.5001  140.7289  166.8716 C.ar    1  UNL1        0.0502
     16 N         139.3134  140.4259  166.0055 N.am    1  UNL1       -0.2492
     17 C         139.0644  140.8344  164.5839 C.2     1  UNL1        0.2520
     18 O         137.8199  140.4550  163.8374 O.2     1  UNL1       -0.2724
     19 C         138.2329  139.6058  166.6458 C.3     1  UNL1        0.2016
     20 C         138.1390  138.1359  166.3618 C.3     1  UNL1        0.4160
     21 F         138.0452  136.6660  166.0778 F       1  UNL1       -0.1682
     22 F         139.3226  138.0510  165.4442 F       1  UNL1       -0.1682
     23 F         136.9350  138.0409  167.2515 F       1  UNL1       -0.1682
     24 C         139.2470  139.1181  156.8773 C.ar    1  UNL1        0.1547
     25 C         139.4120  139.7277  158.2378 C.ar    1  UNL1        0.0400
     26 C         138.6427  140.9620  158.6049 C.ar    1  UNL1        0.0241
     27 C         137.7085  141.5867  157.6114 C.ar    1  UNL1        0.0033
     28 C         137.5436  140.9770  156.2509 C.ar    1  UNL1        0.0207
     29 C         138.3128  139.7428  155.8839 C.ar    1  UNL1        0.0994
     30 N         138.1478  139.1331  154.5232 N.ar    1  UNL1       -0.2839
     31 C         138.6577  139.7044  153.2334 C.ar    1  UNL1        0.1826
     32 N         138.2689  138.7695  152.1267 N.ar    1  UNL1       -0.2280
     33 C         137.5188  137.6205  152.7325 C.ar    1  UNL1        0.0786
     34 C         136.9444  136.4519  151.9879 C.3     1  UNL1        0.0538
     35 C         137.4439  137.8452  154.2136 C.ar    1  UNL1        0.0963
     36 C         141.2719  137.9966  155.6975 C.3     1  UNL1        0.2525
     37 O         140.0162  137.8838  156.5103 O.3     1  UNL1       -0.4700
@<TRIPOS>BOND
     1    36    37    1
     2    37    24    1
     3    24    25   ar
     4    25    26   ar
     5    26     1    1
     6     1     2   ar
     7     2     3   ar
     8     6     3    1
     9     6     7    1
    10     7     8    1
    11     8     9    1
    12     8    10    1
    13    10    11   ar
    14    11    12   ar
    15    12    13   ar
    16    13    14   ar
    17    14    15   ar
    18    15    16    1
    19    16    19    1
    20    19    20    1
    21    20    21    1
    22    20    22    1
    23    20    23    1
    24    16    17   am
    25    17    18    2
    26     3     4   ar
    27     4     5   ar
    28    26    27   ar
    29    27    28   ar
    30    28    29   ar
    31    29    30    1
    32    30    31   ar
    33    31    32   ar
    34    32    33   ar
    35    33    34    1
    36    33    35   ar
    37    29    24   ar
    38    35    30   ar
    39     5     1   ar
    40    17     6    1
    41    15    10   ar
