@<TRIPOS>MOLECULE
*****
 25 28 0 0 0
SMALL
GASTEIGER

@<TRIPOS>ATOM
      1 C         142.2336  138.2289  158.6456 C.3     1  UNL1        0.0622
      2 C         142.8715  138.0507  159.9914 C.3     1  UNL1        0.0291
      3 C         142.0439  138.1760  161.2361 C.3     1  UNL1        0.0954
      4 N         140.5785  138.4797  161.1350 N.am    1  UNL1       -0.2642
      5 C         139.7509  138.6050  162.3798 C.2     1  UNL1        0.3039
      6 O         138.2854  138.9087  162.2787 O.2     1  UNL1       -0.2526
      7 N         140.3887  138.4268  163.7256 N.am    1  UNL1       -0.2901
      8 C         139.9406  138.6579  159.7892 C.3     1  UNL1        0.0954
      9 C         140.7682  138.5326  158.5445 C.3     1  UNL1        0.0291
     10 H         141.3506  138.2275  163.7920 H       1  UNL1        0.1509
     11 C         142.2633  135.6779  156.6106 C.3     1  UNL1        0.1333
     12 N         143.0748  136.9310  156.4655 N.ar    1  UNL1       -0.2943
     13 C         144.0425  137.2315  155.3594 C.ar    1  UNL1        0.2025
     14 N         144.6270  138.5899  155.6112 N.ar    1  UNL1       -0.1259
     15 N         144.0205  139.1288  156.8728 N.ar    1  UNL1       -0.1333
     16 C         143.0612  138.1035  157.4008 C.ar    1  UNL1        0.1430
     17 C         139.5612  138.5521  164.9704 C.3     1  UNL1        0.0774
     18 C         138.4156  138.0891  165.8208 C.3     1  UNL1        0.0259
     19 C         139.2733  139.2323  166.2760 C.3     1  UNL1        0.0420
     20 C         139.6024  140.2850  167.2926 C.ar    1  UNL1       -0.0208
     21 C         140.2797  141.5537  166.8662 C.ar    1  UNL1       -0.0042
     22 C         140.6088  142.6064  167.8827 C.ar    1  UNL1       -0.0003
     23 C         140.2606  142.3905  169.3257 C.ar    1  UNL1       -0.0000
     24 C         139.5833  141.1219  169.7521 C.ar    1  UNL1       -0.0003
     25 C         139.2543  140.0691  168.7355 C.ar    1  UNL1       -0.0042
@<TRIPOS>BOND
     1    11    12    1
     2    12    13   ar
     3    13    14   ar
     4    14    15   ar
     5    15    16   ar
     6    16     1    1
     7     1     2    1
     8     2     3    1
     9     3     4    1
    10     4     5   am
    11     5     6    2
    12     5     7   am
    13     7    17    1
    14    17    18    1
    15    18    19    1
    16    19    20    1
    17    20    21   ar
    18    21    22   ar
    19    22    23   ar
    20    23    24   ar
    21    24    25   ar
    22     4     8    1
    23     8     9    1
    24    16    12   ar
    25     9     1    1
    26    19    17    1
    27    25    20   ar
    28     7    10    1
@<TRIPOS>MOLECULE
*****
 25 28 0 0 0
SMALL
GASTEIGER

@<TRIPOS>ATOM
      1 C         142.8024  138.9914  165.3122 C.3     1  UNL1        0.0622
      2 C         141.8234  138.1989  164.4977 C.3     1  UNL1        0.0291
      3 C         142.0228  138.0538  163.0181 C.3     1  UNL1        0.0954
      4 N         143.2011  138.7014  162.3531 N.am    1  UNL1       -0.2642
      5 C         143.4004  138.5564  160.8734 C.2     1  UNL1        0.3039
      6 O         144.5787  139.2039  160.2084 O.2     1  UNL1       -0.2526
      7 N         142.4215  137.7638  160.0589 N.am    1  UNL1       -0.2901
      8 C         144.1800  139.4940  163.1676 C.3     1  UNL1        0.0954
      9 C         143.9807  139.6390  164.6471 C.3     1  UNL1        0.0291
     10 H         141.6482  137.3388  160.4954 H       1  UNL1        0.1509
     11 C         140.5042  140.7916  166.7709 C.3     1  UNL1        0.1333
     12 N         141.5467  139.9639  167.4623 N.ar    1  UNL1       -0.2943
     13 C         141.7159  139.8184  168.9456 C.ar    1  UNL1        0.2025
     14 N         142.8768  138.9009  169.1919 N.ar    1  UNL1       -0.1259
     15 N         143.4251  138.4795  167.8608 N.ar    1  UNL1       -0.1333
     16 C         142.6030  139.1365  166.7919 C.ar    1  UNL1        0.1430
     17 C         142.6209  137.6187  158.5792 C.3     1  UNL1        0.0774
     18 C         142.8620  138.2373  157.2342 C.3     1  UNL1        0.0259
     19 C         142.7249  136.7490  157.3616 C.3     1  UNL1        0.0420
     20 C         142.7059  135.3876  156.7321 C.ar    1  UNL1       -0.0208
     21 C         143.7062  134.3524  157.1536 C.ar    1  UNL1       -0.0042
     22 C         143.6871  132.9910  156.5242 C.ar    1  UNL1       -0.0003
     23 C         142.6678  132.6648  155.4732 C.ar    1  UNL1       -0.0000
     24 C         141.6675  133.7001  155.0516 C.ar    1  UNL1       -0.0003
     25 C         141.6866  135.0615  155.6811 C.ar    1  UNL1       -0.0042
@<TRIPOS>BOND
     1    11    12    1
     2    12    13   ar
     3    13    14   ar
     4    14    15   ar
     5    15    16   ar
     6    16     1    1
     7     1     2    1
     8     2     3    1
     9     3     4    1
    10     4     5   am
    11     5     6    2
    12     5     7   am
    13     7    17    1
    14    17    18    1
    15    18    19    1
    16    19    20    1
    17    20    21   ar
    18    21    22   ar
    19    22    23   ar
    20    23    24   ar
    21    24    25   ar
    22     4     8    1
    23     8     9    1
    24    16    12   ar
    25     9     1    1
    26    19    17    1
    27    25    20   ar
    28     7    10    1
@<TRIPOS>MOLECULE
*****
 25 28 0 0 0
SMALL
GASTEIGER

@<TRIPOS>ATOM
      1 C         142.2596  138.1498  159.7835 C.3     1  UNL1        0.0622
      2 C         140.8057  138.4125  160.0425 C.3     1  UNL1        0.0291
      3 C         140.3017  138.5164  161.4514 C.3     1  UNL1        0.0954
      4 N         141.2517  138.3578  162.6014 N.am    1  UNL1       -0.2642
      5 C         140.7476  138.4617  164.0104 C.2     1  UNL1        0.3039
      6 O         141.6975  138.3031  165.1604 O.2     1  UNL1       -0.2526
      7 N         139.2937  138.7244  164.2693 N.am    1  UNL1       -0.2901
      8 C         142.7056  138.0951  162.3424 C.3     1  UNL1        0.0954
      9 C         143.2096  137.9912  160.9335 C.3     1  UNL1        0.0291
     10 H         138.6702  138.8285  163.5146 H       1  UNL1        0.1509
     11 C         142.8133  140.6456  157.7552 C.3     1  UNL1        0.1333
     12 N         143.0182  139.1930  157.4422 N.ar    1  UNL1       -0.2943
     13 C         143.5135  138.6326  156.1420 C.ar    1  UNL1        0.2025
     14 N         143.5651  137.1390  156.2707 N.ar    1  UNL1       -0.1259
     15 N         143.1017  136.7764  157.6505 N.ar    1  UNL1       -0.1333
     16 C         142.7637  138.0459  158.3745 C.ar    1  UNL1        0.1430
     17 C         138.7896  138.8284  165.6783 C.3     1  UNL1        0.0774
     18 C         137.8573  138.3726  166.7614 C.3     1  UNL1        0.0259
     19 C         138.8489  139.4642  167.0356 C.3     1  UNL1        0.0420
     20 C         139.4556  140.4615  167.9775 C.ar    1  UNL1       -0.0208
     21 C         139.2142  140.3427  169.4532 C.ar    1  UNL1       -0.0042
     22 C         139.8209  141.3400  170.3951 C.ar    1  UNL1       -0.0003
     23 C         140.6691  142.4562  169.8614 C.ar    1  UNL1       -0.0000
     24 C         140.9105  142.5750  168.3857 C.ar    1  UNL1       -0.0003
     25 C         140.3037  141.5776  167.4438 C.ar    1  UNL1       -0.0042
@<TRIPOS>BOND
     1    11    12    1
     2    12    13   ar
     3    13    14   ar
     4    14    15   ar
     5    15    16   ar
     6    16     1    1
     7     1     2    1
     8     2     3    1
     9     3     4    1
    10     4     5   am
    11     5     6    2
    12     5     7   am
    13     7    17    1
    14    17    18    1
    15    18    19    1
    16    19    20    1
    17    20    21   ar
    18    21    22   ar
    19    22    23   ar
    20    23    24   ar
    21    24    25   ar
    22     4     8    1
    23     8     9    1
    24    16    12   ar
    25     9     1    1
    26    19    17    1
    27    25    20   ar
    28     7    10    1
@<TRIPOS>MOLECULE
*****
 25 28 0 0 0
SMALL
GASTEIGER

@<TRIPOS>ATOM
      1 C         138.7260  140.1414  159.1986 C.3     1  UNL1        0.0622
      2 C         138.1695  141.0501  160.2543 C.3     1  UNL1        0.0291
      3 C         138.1898  140.6282  161.6936 C.3     1  UNL1        0.0954
      4 N         138.7665  139.2977  162.0771 N.am    1  UNL1       -0.2642
      5 C         138.7868  138.8759  163.5165 C.2     1  UNL1        0.3039
      6 O         139.3635  137.5453  163.9000 O.2     1  UNL1       -0.2526
      7 N         138.2303  139.7845  164.5722 N.am    1  UNL1       -0.2901
      8 C         139.3230  138.3890  161.0214 C.3     1  UNL1        0.0954
      9 C         139.3027  138.8109  159.5821 C.3     1  UNL1        0.0291
     10 H         137.8518  140.6578  164.3205 H       1  UNL1        0.1509
     11 C         140.8146  142.2056  157.7750 C.3     1  UNL1        0.1333
     12 N         139.6657  141.5120  157.1049 N.ar    1  UNL1       -0.2943
     13 C         139.2752  141.6455  155.6628 C.ar    1  UNL1        0.2025
     14 N         138.0738  140.7792  155.4258 N.ar    1  UNL1       -0.1259
     15 N         137.7218  140.1103  156.7215 N.ar    1  UNL1       -0.1333
     16 C         138.7057  140.5632  157.7592 C.ar    1  UNL1        0.1430
     17 C         138.2506  139.3627  166.0116 C.3     1  UNL1        0.0774
     18 C         137.6913  138.5352  167.1307 C.3     1  UNL1        0.0259
     19 C         138.8449  139.4595  167.3854 C.3     1  UNL1        0.0420
     20 C         139.8541  140.0490  168.3256 C.ar    1  UNL1       -0.0208
     21 C         139.4025  140.6947  169.6020 C.ar    1  UNL1       -0.0042
     22 C         140.4116  141.2842  170.5422 C.ar    1  UNL1       -0.0003
     23 C         141.8725  141.2282  170.2060 C.ar    1  UNL1       -0.0000
     24 C         142.3240  140.5825  168.9296 C.ar    1  UNL1       -0.0003
     25 C         141.3148  139.9929  167.9894 C.ar    1  UNL1       -0.0042
@<TRIPOS>BOND
     1    11    12    1
     2    12    13   ar
     3    13    14   ar
     4    14    15   ar
     5    15    16   ar
     6    16     1    1
     7     1     2    1
     8     2     3    1
     9     3     4    1
    10     4     5   am
    11     5     6    2
    12     5     7   am
    13     7    17    1
    14    17    18    1
    15    18    19    1
    16    19    20    1
    17    20    21   ar
    18    21    22   ar
    19    22    23   ar
    20    23    24   ar
    21    24    25   ar
    22     4     8    1
    23     8     9    1
    24    16    12   ar
    25     9     1    1
    26    19    17    1
    27    25    20   ar
    28     7    10    1
@<TRIPOS>MOLECULE
*****
 25 28 0 0 0
SMALL
GASTEIGER

@<TRIPOS>ATOM
      1 C         143.1395  139.8125  160.0961 C.3     1  UNL1        0.0622
      2 C         141.8092  140.4180  160.4330 C.3     1  UNL1        0.0291
      3 C         141.2155  140.2135  161.7952 C.3     1  UNL1        0.0954
      4 N         141.9522  139.4036  162.8205 N.am    1  UNL1       -0.2642
      5 C         141.3584  139.1992  164.1828 C.2     1  UNL1        0.3039
      6 O         142.0951  138.3893  165.2082 O.2     1  UNL1       -0.2526
      7 N         140.0281  139.8046  164.5197 N.am    1  UNL1       -0.2901
      8 C         143.2825  138.7982  162.4837 C.3     1  UNL1        0.0954
      9 C         143.8762  139.0026  161.1215 C.3     1  UNL1        0.0291
     10 H         139.5446  140.3362  163.8467 H       1  UNL1        0.1509
     11 C         144.6764  142.4971  159.0565 C.3     1  UNL1        0.1333
     12 N         144.4397  141.2509  158.2560 N.ar    1  UNL1       -0.2943
     13 C         144.8678  141.0198  156.8371 C.ar    1  UNL1        0.2025
     14 N         144.4260  139.6430  156.4379 N.ar    1  UNL1       -0.1259
     15 N         143.7248  139.0232  157.6102 N.ar    1  UNL1       -0.1333
     16 C         143.7333  140.0169  158.7338 C.ar    1  UNL1        0.1430
     17 C         139.4343  139.6002  165.8820 C.3     1  UNL1        0.0774
     18 C         138.3033  139.1327  166.7493 C.3     1  UNL1        0.0259
     19 C         139.5370  139.7136  167.3742 C.3     1  UNL1        0.0420
     20 C         140.3085  140.1145  168.5964 C.ar    1  UNL1       -0.0208
     21 C         141.7928  139.9047  168.6487 C.ar    1  UNL1       -0.0042
     22 C         142.5644  140.3055  169.8710 C.ar    1  UNL1       -0.0003
     23 C         141.8516  140.9163  171.0411 C.ar    1  UNL1       -0.0000
     24 C         140.3672  141.1261  170.9888 C.ar    1  UNL1       -0.0003
     25 C         139.5957  140.7252  169.7664 C.ar    1  UNL1       -0.0042
@<TRIPOS>BOND
     1    11    12    1
     2    12    13   ar
     3    13    14   ar
     4    14    15   ar
     5    15    16   ar
     6    16     1    1
     7     1     2    1
     8     2     3    1
     9     3     4    1
    10     4     5   am
    11     5     6    2
    12     5     7   am
    13     7    17    1
    14    17    18    1
    15    18    19    1
    16    19    20    1
    17    20    21   ar
    18    21    22   ar
    19    22    23   ar
    20    23    24   ar
    21    24    25   ar
    22     4     8    1
    23     8     9    1
    24    16    12   ar
    25     9     1    1
    26    19    17    1
    27    25    20   ar
    28     7    10    1
@<TRIPOS>MOLECULE
*****
 25 28 0 0 0
SMALL
GASTEIGER

@<TRIPOS>ATOM
      1 C         138.5763  141.7766  159.3079 C.3     1  UNL1        0.0622
      2 C         138.2473  142.5247  160.5656 C.3     1  UNL1        0.0291
      3 C         138.2717  141.8165  161.8876 C.3     1  UNL1        0.0954
      4 N         138.6251  140.3601  161.9519 N.am    1  UNL1       -0.2642
      5 C         138.6495  139.6519  163.2740 C.2     1  UNL1        0.3039
      6 O         139.0029  138.1955  163.3382 O.2     1  UNL1       -0.2526
      7 N         138.3206  140.4000  164.5317 N.am    1  UNL1       -0.2901
      8 C         138.9541  139.6120  160.6941 C.3     1  UNL1        0.0954
      9 C         138.9297  140.3203  159.3721 C.3     1  UNL1        0.0291
     10 H         138.0886  141.3558  164.4896 H       1  UNL1        0.1509
     11 C         136.5224  141.1713  156.8451 C.3     1  UNL1        0.1333
     12 N         137.6078  142.2066  156.8538 N.ar    1  UNL1       -0.2943
     13 C         137.9397  143.1455  155.7320 C.ar    1  UNL1        0.2025
     14 N         139.0889  144.0040  156.1707 N.ar    1  UNL1       -0.1259
     15 N         139.4672  143.5957  157.5636 N.ar    1  UNL1       -0.1333
     16 C         138.5518  142.4849  157.9858 C.ar    1  UNL1        0.1430
     17 C         138.3450  139.6917  165.8538 C.3     1  UNL1        0.0774
     18 C         137.8062  138.6344  166.7712 C.3     1  UNL1        0.0259
     19 C         138.9261  139.5224  167.2263 C.3     1  UNL1        0.0420
     20 C         139.9082  139.9374  168.2814 C.ar    1  UNL1       -0.0208
     21 C         141.3809  139.8589  168.0077 C.ar    1  UNL1       -0.0042
     22 C         142.3630  140.2738  169.0628 C.ar    1  UNL1       -0.0003
     23 C         141.8724  140.7673  170.3917 C.ar    1  UNL1       -0.0000
     24 C         140.3997  140.8458  170.6654 C.ar    1  UNL1       -0.0003
     25 C         139.4176  140.4308  169.6102 C.ar    1  UNL1       -0.0042
@<TRIPOS>BOND
     1    11    12    1
     2    12    13   ar
     3    13    14   ar
     4    14    15   ar
     5    15    16   ar
     6    16     1    1
     7     1     2    1
     8     2     3    1
     9     3     4    1
    10     4     5   am
    11     5     6    2
    12     5     7   am
    13     7    17    1
    14    17    18    1
    15    18    19    1
    16    19    20    1
    17    20    21   ar
    18    21    22   ar
    19    22    23   ar
    20    23    24   ar
    21    24    25   ar
    22     4     8    1
    23     8     9    1
    24    16    12   ar
    25     9     1    1
    26    19    17    1
    27    25    20   ar
    28     7    10    1
@<TRIPOS>MOLECULE
*****
 25 28 0 0 0
SMALL
GASTEIGER

@<TRIPOS>ATOM
      1 C         139.3688  139.6694  166.8781 C.3     1  UNL1        0.0622
      2 C         139.7773  140.7647  165.9382 C.3     1  UNL1        0.0291
      3 C         139.5786  140.5981  164.4609 C.3     1  UNL1        0.0954
      4 N         138.9715  139.3362  163.9233 N.am    1  UNL1       -0.2642
      5 C         138.7728  139.1697  162.4458 C.2     1  UNL1        0.3039
      6 O         138.1656  137.9078  161.9083 O.2     1  UNL1       -0.2526
      7 N         139.1813  140.2650  161.5060 N.am    1  UNL1       -0.2901
      8 C         138.5630  138.2409  164.8632 C.3     1  UNL1        0.0954
      9 C         138.7616  138.4075  166.3406 C.3     1  UNL1        0.0291
     10 H         139.5798  141.0932  161.8588 H       1  UNL1        0.1509
     11 C         142.2319  140.0453  168.3983 C.3     1  UNL1        0.1333
     12 N         140.8835  140.0087  169.0543 N.ar    1  UNL1       -0.2943
     13 C         140.6143  140.1385  170.5242 C.ar    1  UNL1        0.2025
     14 N         139.1319  140.0460  170.7340 N.ar    1  UNL1       -0.1259
     15 N         138.4850  139.8590  169.3937 N.ar    1  UNL1       -0.1333
     16 C         139.5675  139.8360  168.3556 C.ar    1  UNL1        0.1430
     17 C         138.9826  140.0984  160.0285 C.3     1  UNL1        0.0774
     18 C         138.2518  140.4541  158.7678 C.3     1  UNL1        0.0259
     19 C         139.3693  139.4543  158.7302 C.3     1  UNL1        0.0420
     20 C         140.2378  138.5052  157.9590 C.ar    1  UNL1       -0.0208
     21 C         139.6859  137.7860  156.7639 C.ar    1  UNL1       -0.0042
     22 C         140.5544  136.8368  155.9927 C.ar    1  UNL1       -0.0003
     23 C         141.9749  136.6069  156.4165 C.ar    1  UNL1       -0.0000
     24 C         142.5267  137.3261  157.6115 C.ar    1  UNL1       -0.0003
     25 C         141.6582  138.2753  158.3828 C.ar    1  UNL1       -0.0042
@<TRIPOS>BOND
     1    11    12    1
     2    12    13   ar
     3    13    14   ar
     4    14    15   ar
     5    15    16   ar
     6    16     1    1
     7     1     2    1
     8     2     3    1
     9     3     4    1
    10     4     5   am
    11     5     6    2
    12     5     7   am
    13     7    17    1
    14    17    18    1
    15    18    19    1
    16    19    20    1
    17    20    21   ar
    18    21    22   ar
    19    22    23   ar
    20    23    24   ar
    21    24    25   ar
    22     4     8    1
    23     8     9    1
    24    16    12   ar
    25     9     1    1
    26    19    17    1
    27    25    20   ar
    28     7    10    1
@<TRIPOS>MOLECULE
*****
 25 28 0 0 0
SMALL
GASTEIGER

@<TRIPOS>ATOM
      1 C         143.0465  140.1084  159.0493 C.3     1  UNL1        0.0622
      2 C         143.4271  139.2869  160.2452 C.3     1  UNL1        0.0291
      3 C         142.5304  139.2518  161.4471 C.3     1  UNL1        0.0954
      4 N         141.2530  140.0381  161.4530 N.am    1  UNL1       -0.2642
      5 C         140.3563  140.0029  162.6550 C.2     1  UNL1        0.3039
      6 O         139.0789  140.7893  162.6610 O.2     1  UNL1       -0.2526
      7 N         140.7369  139.1814  163.8509 N.am    1  UNL1       -0.2901
      8 C         140.8724  140.8596  160.2571 C.3     1  UNL1        0.0954
      9 C         141.7692  140.8948  159.0553 C.3     1  UNL1        0.0291
     10 H         141.5752  138.6653  163.8470 H       1  UNL1        0.1509
     11 C         145.0470  142.5495  158.2193 C.3     1  UNL1        0.1333
     12 N         144.8628  141.2657  157.4658 N.ar    1  UNL1       -0.2943
     13 C         145.5657  140.8784  156.1986 C.ar    1  UNL1        0.2025
     14 N         145.0807  139.5170  155.7968 N.ar    1  UNL1       -0.1259
     15 N         144.0779  139.0629  156.8158 N.ar    1  UNL1       -0.1333
     16 C         143.9433  140.1436  157.8473 C.ar    1  UNL1        0.1430
     17 C         139.8401  139.1462  165.0529 C.3     1  UNL1        0.0774
     18 C         138.6622  138.5663  165.7783 C.3     1  UNL1        0.0259
     19 C         139.4648  139.6652  166.4093 C.3     1  UNL1        0.0420
     20 C         139.7115  140.5992  167.5567 C.ar    1  UNL1       -0.0208
     21 C         140.3660  141.9272  167.3154 C.ar    1  UNL1       -0.0042
     22 C         140.6127  142.8613  168.4628 C.ar    1  UNL1       -0.0003
     23 C         140.2050  142.4674  169.8516 C.ar    1  UNL1       -0.0000
     24 C         139.5505  141.1394  170.0929 C.ar    1  UNL1       -0.0003
     25 C         139.3038  140.2053  168.9454 C.ar    1  UNL1       -0.0042
@<TRIPOS>BOND
     1    11    12    1
     2    12    13   ar
     3    13    14   ar
     4    14    15   ar
     5    15    16   ar
     6    16     1    1
     7     1     2    1
     8     2     3    1
     9     3     4    1
    10     4     5   am
    11     5     6    2
    12     5     7   am
    13     7    17    1
    14    17    18    1
    15    18    19    1
    16    19    20    1
    17    20    21   ar
    18    21    22   ar
    19    22    23   ar
    20    23    24   ar
    21    24    25   ar
    22     4     8    1
    23     8     9    1
    24    16    12   ar
    25     9     1    1
    26    19    17    1
    27    25    20   ar
    28     7    10    1
@<TRIPOS>MOLECULE
*****
 25 28 0 0 0
SMALL
GASTEIGER

@<TRIPOS>ATOM
      1 C         139.4233  140.1070  167.0134 C.3     1  UNL1        0.0622
      2 C         139.9464  141.2831  166.2433 C.3     1  UNL1        0.0291
      3 C         139.6666  141.4023  164.7745 C.3     1  UNL1        0.0954
      4 N         138.8637  140.3453  164.0757 N.am    1  UNL1       -0.2642
      5 C         138.5840  140.4646  162.6068 C.2     1  UNL1        0.3039
      6 O         137.7811  139.4077  161.9081 O.2     1  UNL1       -0.2526
      7 N         139.1071  141.6407  161.8368 N.am    1  UNL1       -0.2901
      8 C         138.3406  139.1692  164.8458 C.3     1  UNL1        0.0954
      9 C         138.6204  139.0500  166.3146 C.3     1  UNL1        0.0291
     10 H         139.6340  142.3344  162.2954 H       1  UNL1        0.1509
     11 C         142.3739  139.9253  168.3956 C.3     1  UNL1        0.1333
     12 N         141.0592  139.9042  169.1176 N.ar    1  UNL1       -0.2943
     13 C         140.8700  139.7959  170.6017 C.ar    1  UNL1        0.2025
     14 N         139.3968  139.8125  170.8836 N.ar    1  UNL1       -0.1259
     15 N         138.6756  139.9311  169.5737 N.ar    1  UNL1       -0.1333
     16 C         139.7030  139.9877  168.4823 C.ar    1  UNL1        0.1430
     17 C         138.8273  141.7599  160.3679 C.3     1  UNL1        0.0774
     18 C         138.1596  141.2464  159.1268 C.3     1  UNL1        0.0259
     19 C         139.0105  142.4800  159.0648 C.3     1  UNL1        0.0420
     20 C         139.6076  143.6080  158.2768 C.ar    1  UNL1       -0.0208
     21 C         139.4148  143.6691  156.7905 C.ar    1  UNL1       -0.0042
     22 C         140.0119  144.7970  156.0024 C.ar    1  UNL1       -0.0003
     23 C         140.8019  145.8641  156.7007 C.ar    1  UNL1       -0.0000
     24 C         140.9947  145.8030  158.1870 C.ar    1  UNL1       -0.0003
     25 C         140.3976  144.6749  158.9750 C.ar    1  UNL1       -0.0042
@<TRIPOS>BOND
     1    11    12    1
     2    12    13   ar
     3    13    14   ar
     4    14    15   ar
     5    15    16   ar
     6    16     1    1
     7     1     2    1
     8     2     3    1
     9     3     4    1
    10     4     5   am
    11     5     6    2
    12     5     7   am
    13     7    17    1
    14    17    18    1
    15    18    19    1
    16    19    20    1
    17    20    21   ar
    18    21    22   ar
    19    22    23   ar
    20    23    24   ar
    21    24    25   ar
    22     4     8    1
    23     8     9    1
    24    16    12   ar
    25     9     1    1
    26    19    17    1
    27    25    20   ar
    28     7    10    1
