@<TRIPOS>MOLECULE
*****
 28 31 0 0 0
SMALL
GASTEIGER

@<TRIPOS>ATOM
      1 C         137.3336  138.1236  167.2805 C.3     1  UNL1        0.0420
      2 C         138.2356  139.2262  166.8105 C.3     1  UNL1        0.1912
      3 O         138.2321  139.6342  165.3671 O.3     1  UNL1       -0.3500
      4 C         139.1341  140.7367  164.8971 C.3     1  UNL1        0.1145
      5 C         140.0362  141.8391  164.4271 C.3     1  UNL1        0.0463
      6 C         140.0326  142.2471  162.9837 C.3     1  UNL1        0.0746
      7 N         139.1270  141.5527  162.0103 N.3     1  UNL1       -0.2722
      8 C         138.2250  140.4502  162.4802 C.3     1  UNL1        0.0746
      9 C         138.2285  140.0422  163.9236 C.3     1  UNL1        0.0463
     10 C         140.0397  141.4311  165.8705 C.3     1  UNL1        0.1254
     11 N         140.0433  141.0231  167.3140 N.am    1  UNL1       -0.2543
     12 C         139.1412  139.9206  167.7840 C.2     1  UNL1        0.2566
     13 O         139.1448  139.5125  169.2274 O.2     1  UNL1       -0.2719
     14 C         140.9489  141.7175  168.2875 C.ar    1  UNL1        0.0540
     15 C         142.3668  141.2570  168.4526 C.ar    1  UNL1        0.0149
     16 C         143.2724  141.9514  169.4260 C.ar    1  UNL1        0.0013
     17 C         142.7601  143.1064  170.2344 C.ar    1  UNL1        0.0001
     18 C         141.3421  143.5670  170.0693 C.ar    1  UNL1        0.0013
     19 C         140.4365  142.8725  169.0959 C.ar    1  UNL1        0.0149
     20 C         139.1235  141.9607  160.5668 C.3     1  UNL1        0.0768
     21 C         140.0540  141.2950  159.5969 C.3     1  UNL1        0.0437
     22 C         141.1269  140.3742  160.0983 C.ar    1  UNL1       -0.0206
     23 C         142.4881  140.9147  160.4220 C.ar    1  UNL1       -0.0019
     24 C         143.5608  139.9939  160.9234 C.ar    1  UNL1        0.0293
     25 C         143.2723  138.5327  161.1011 C.ar    1  UNL1        0.1401
     26 F         144.3451  137.6119  161.6026 F       1  UNL1       -0.2042
     27 C         141.9110  137.9922  160.7775 C.ar    1  UNL1        0.0293
     28 C         140.8383  138.9130  160.2761 C.ar    1  UNL1       -0.0019
@<TRIPOS>BOND
     1     1     2    1
     2     2     3    1
     3     3     4    1
     4     4     5    1
     5     5     6    1
     6     6     7    1
     7     7    20    1
     8    20    21    1
     9    21    22    1
    10    22    23   ar
    11    23    24   ar
    12    24    25   ar
    13    25    26    1
    14    25    27   ar
    15    27    28   ar
    16     7     8    1
    17     8     9    1
    18     4    10    1
    19    10    11    1
    20    11    14    1
    21    14    15   ar
    22    15    16   ar
    23    16    17   ar
    24    17    18   ar
    25    18    19   ar
    26    11    12   am
    27    12    13    2
    28    12     2    1
    29     9     4    1
    30    19    14   ar
    31    28    22   ar
@<TRIPOS>MOLECULE
*****
 28 31 0 0 0
SMALL
GASTEIGER

@<TRIPOS>ATOM
      1 C         143.8669  138.0226  166.3476 C.3     1  UNL1        0.0420
      2 C         142.5664  138.7671  166.2785 C.3     1  UNL1        0.1912
      3 O         141.6711  138.6035  165.0862 O.3     1  UNL1       -0.3500
      4 C         140.3707  139.3479  165.0170 C.3     1  UNL1        0.1145
      5 C         139.0703  140.0924  164.9479 C.3     1  UNL1        0.0463
      6 C         138.1750  139.9288  163.7556 C.3     1  UNL1        0.0746
      7 N         138.5800  139.0208  162.6325 N.3     1  UNL1       -0.2722
      8 C         139.8803  138.2763  162.7016 C.3     1  UNL1        0.0746
      9 C         140.7757  138.4399  163.8939 C.3     1  UNL1        0.0463
     10 C         139.9657  140.2560  166.1401 C.3     1  UNL1        0.1254
     11 N         140.8611  140.4196  167.3325 N.am    1  UNL1       -0.2543
     12 C         142.1614  139.6751  167.4016 C.2     1  UNL1        0.2566
     13 O         143.0569  139.8387  168.5939 O.2     1  UNL1       -0.2719
     14 C         140.4561  141.3276  168.4556 C.ar    1  UNL1        0.0540
     15 C         139.5958  140.8065  169.5683 C.ar    1  UNL1        0.0149
     16 C         139.1908  141.7145  170.6915 C.ar    1  UNL1        0.0013
     17 C         139.6461  143.1437  170.7019 C.ar    1  UNL1        0.0001
     18 C         140.5065  143.6649  169.5891 C.ar    1  UNL1        0.0013
     19 C         140.9115  142.7568  168.4659 C.ar    1  UNL1        0.0149
     20 C         137.6846  138.8572  161.4402 C.3     1  UNL1        0.0768
     21 C         137.6799  139.8955  160.3577 C.3     1  UNL1        0.0437
     22 C         138.7053  140.9903  160.3641 C.ar    1  UNL1       -0.0206
     23 C         138.3620  142.3361  160.9307 C.ar    1  UNL1       -0.0019
     24 C         139.3874  143.4308  160.9371 C.ar    1  UNL1        0.0293
     25 C         140.7560  143.1798  160.3769 C.ar    1  UNL1        0.1401
     26 F         141.7814  144.2747  160.3833 F       1  UNL1       -0.2042
     27 C         141.0993  141.8341  159.8103 C.ar    1  UNL1        0.0293
     28 C         140.0739  140.7394  159.8038 C.ar    1  UNL1       -0.0019
@<TRIPOS>BOND
     1     1     2    1
     2     2     3    1
     3     3     4    1
     4     4     5    1
     5     5     6    1
     6     6     7    1
     7     7    20    1
     8    20    21    1
     9    21    22    1
    10    22    23   ar
    11    23    24   ar
    12    24    25   ar
    13    25    26    1
    14    25    27   ar
    15    27    28   ar
    16     7     8    1
    17     8     9    1
    18     4    10    1
    19    10    11    1
    20    11    14    1
    21    14    15   ar
    22    15    16   ar
    23    16    17   ar
    24    17    18   ar
    25    18    19   ar
    26    11    12   am
    27    12    13    2
    28    12     2    1
    29     9     4    1
    30    19    14   ar
    31    28    22   ar
@<TRIPOS>MOLECULE
*****
 28 31 0 0 0
SMALL
GASTEIGER

@<TRIPOS>ATOM
      1 C         137.2017  138.0210  167.4354 C.3     1  UNL1        0.0420
      2 C         138.1613  139.0315  166.8804 C.3     1  UNL1        0.1912
      3 O         138.2074  139.2900  165.4036 O.3     1  UNL1       -0.3500
      4 C         139.1670  140.3006  164.8485 C.3     1  UNL1        0.1145
      5 C         140.1265  141.3111  164.2936 C.3     1  UNL1        0.0463
      6 C         140.1726  141.5696  162.8168 C.3     1  UNL1        0.0746
      7 N         139.2590  140.8175  161.8949 N.3     1  UNL1       -0.2722
      8 C         138.2994  139.8070  162.4499 C.3     1  UNL1        0.0746
      9 C         138.2534  139.5485  163.9267 C.3     1  UNL1        0.0463
     10 C         140.0805  141.0526  165.7704 C.3     1  UNL1        0.1254
     11 N         140.0345  140.7941  167.2473 N.am    1  UNL1       -0.2543
     12 C         139.0749  139.7836  167.8022 C.2     1  UNL1        0.2566
     13 O         139.0288  139.5251  169.2791 O.2     1  UNL1       -0.2719
     14 C         140.9480  141.5462  168.1692 C.ar    1  UNL1        0.0540
     15 C         140.4327  142.7275  168.9365 C.ar    1  UNL1        0.0149
     16 C         141.3462  143.4796  169.8584 C.ar    1  UNL1        0.0013
     17 C         142.7751  143.0503  170.0129 C.ar    1  UNL1        0.0001
     18 C         143.2905  141.8689  169.2455 C.ar    1  UNL1        0.0013
     19 C         142.3770  141.1168  168.3237 C.ar    1  UNL1        0.0149
     20 C         139.3051  141.0760  160.4180 C.3     1  UNL1        0.0768
     21 C         138.7561  142.3570  159.8634 C.3     1  UNL1        0.0437
     22 C         139.6862  143.3883  159.2963 C.ar    1  UNL1       -0.0206
     23 C         140.3197  144.4046  160.1994 C.ar    1  UNL1       -0.0019
     24 C         141.2497  145.4358  159.6323 C.ar    1  UNL1        0.0293
     25 C         141.5463  145.4507  158.1620 C.ar    1  UNL1        0.1401
     26 F         142.4763  146.4819  157.5949 F       1  UNL1       -0.2042
     27 C         140.9128  144.4343  157.2588 C.ar    1  UNL1        0.0293
     28 C         139.9828  143.4032  157.8259 C.ar    1  UNL1       -0.0019
@<TRIPOS>BOND
     1     1     2    1
     2     2     3    1
     3     3     4    1
     4     4     5    1
     5     5     6    1
     6     6     7    1
     7     7    20    1
     8    20    21    1
     9    21    22    1
    10    22    23   ar
    11    23    24   ar
    12    24    25   ar
    13    25    26    1
    14    25    27   ar
    15    27    28   ar
    16     7     8    1
    17     8     9    1
    18     4    10    1
    19    10    11    1
    20    11    14    1
    21    14    15   ar
    22    15    16   ar
    23    16    17   ar
    24    17    18   ar
    25    18    19   ar
    26    11    12   am
    27    12    13    2
    28    12     2    1
    29     9     4    1
    30    19    14   ar
    31    28    22   ar
@<TRIPOS>MOLECULE
*****
 28 31 0 0 0
SMALL
GASTEIGER

@<TRIPOS>ATOM
      1 C         137.2690  138.0113  167.2770 C.3     1  UNL1        0.0420
      2 C         138.2672  139.0066  166.7640 C.3     1  UNL1        0.1912
      3 O         138.4026  139.2407  165.2886 O.3     1  UNL1       -0.3500
      4 C         139.4007  140.2360  164.7756 C.3     1  UNL1        0.1145
      5 C         140.3988  141.2313  164.2627 C.3     1  UNL1        0.0463
      6 C         140.5342  141.4654  162.7873 C.3     1  UNL1        0.0746
      7 N         139.6716  140.7042  161.8248 N.3     1  UNL1       -0.2722
      8 C         138.6735  139.7089  162.3377 C.3     1  UNL1        0.0746
      9 C         138.5381  139.4748  163.8131 C.3     1  UNL1        0.0463
     10 C         140.2634  140.9972  165.7380 C.3     1  UNL1        0.1254
     11 N         140.1280  140.7631  167.2135 N.am    1  UNL1       -0.2543
     12 C         139.1299  139.7678  167.7264 C.2     1  UNL1        0.2566
     13 O         138.9944  139.5337  169.2019 O.2     1  UNL1       -0.2719
     14 C         140.9906  141.5243  168.1760 C.ar    1  UNL1        0.0540
     15 C         140.4413  142.7249  168.8877 C.ar    1  UNL1        0.0149
     16 C         141.3039  143.4862  169.8502 C.ar    1  UNL1        0.0013
     17 C         142.7160  143.0467  170.1009 C.ar    1  UNL1        0.0001
     18 C         143.2655  141.8460  169.3891 C.ar    1  UNL1        0.0013
     19 C         142.4028  141.0848  168.4267 C.ar    1  UNL1        0.0149
     20 C         139.8070  140.9383  160.3493 C.3     1  UNL1        0.0768
     21 C         139.3699  139.8813  159.3790 C.3     1  UNL1        0.0437
     22 C         140.3887  138.9937  158.7276 C.ar    1  UNL1       -0.0206
     23 C         141.7514  138.8435  159.3364 C.ar    1  UNL1       -0.0019
     24 C         142.7701  137.9559  158.6850 C.ar    1  UNL1        0.0293
     25 C         142.4261  137.2184  157.4249 C.ar    1  UNL1        0.1401
     26 F         143.4449  136.3308  156.7735 F       1  UNL1       -0.2042
     27 C         141.0635  137.3686  156.8161 C.ar    1  UNL1        0.0293
     28 C         140.0448  138.2562  157.4675 C.ar    1  UNL1       -0.0019
@<TRIPOS>BOND
     1     1     2    1
     2     2     3    1
     3     3     4    1
     4     4     5    1
     5     5     6    1
     6     6     7    1
     7     7    20    1
     8    20    21    1
     9    21    22    1
    10    22    23   ar
    11    23    24   ar
    12    24    25   ar
    13    25    26    1
    14    25    27   ar
    15    27    28   ar
    16     7     8    1
    17     8     9    1
    18     4    10    1
    19    10    11    1
    20    11    14    1
    21    14    15   ar
    22    15    16   ar
    23    16    17   ar
    24    17    18   ar
    25    18    19   ar
    26    11    12   am
    27    12    13    2
    28    12     2    1
    29     9     4    1
    30    19    14   ar
    31    28    22   ar
@<TRIPOS>MOLECULE
*****
 28 31 0 0 0
SMALL
GASTEIGER

@<TRIPOS>ATOM
      1 C         138.2585  139.2102  165.0769 C.3     1  UNL1        0.0420
      2 C         139.0784  140.4631  165.1676 C.3     1  UNL1        0.1912
      3 O         139.1968  141.3696  163.9784 O.3     1  UNL1       -0.3500
      4 C         140.0166  142.6225  164.0690 C.3     1  UNL1        0.1145
      5 C         140.8364  143.8754  164.1597 C.3     1  UNL1        0.0463
      6 C         140.9549  144.7818  162.9705 C.3     1  UNL1        0.0746
      7 N         140.2535  144.4354  161.6906 N.3     1  UNL1       -0.2722
      8 C         139.4337  143.1826  161.5999 C.3     1  UNL1        0.0746
      9 C         139.3153  142.2761  162.7891 C.3     1  UNL1        0.0463
     10 C         140.7180  142.9689  165.3489 C.3     1  UNL1        0.1254
     11 N         140.5995  142.0624  166.5382 N.am    1  UNL1       -0.2543
     12 C         139.7797  140.8095  166.4475 C.2     1  UNL1        0.2566
     13 O         139.6612  139.9030  167.6367 O.2     1  UNL1       -0.2719
     14 C         141.3008  142.4087  167.8181 C.ar    1  UNL1        0.0540
     15 C         142.7293  142.0007  168.0247 C.ar    1  UNL1        0.0149
     16 C         143.4307  142.3471  169.3046 C.ar    1  UNL1        0.0013
     17 C         142.7035  143.1015  170.3779 C.ar    1  UNL1        0.0001
     18 C         141.2749  143.5096  170.1713 C.ar    1  UNL1        0.0013
     19 C         140.5735  143.1632  168.8914 C.ar    1  UNL1        0.0149
     20 C         140.3720  145.3420  160.5014 C.3     1  UNL1        0.0768
     21 C         141.4494  145.1079  159.4843 C.3     1  UNL1        0.0437
     22 C         141.2169  145.4728  158.0480 C.ar    1  UNL1       -0.0206
     23 C         140.0063  146.2704  157.6633 C.ar    1  UNL1       -0.0019
     24 C         139.7739  146.6352  156.2270 C.ar    1  UNL1        0.0293
     25 C         140.7522  146.2024  155.1755 C.ar    1  UNL1        0.1401
     26 F         140.5197  146.5673  153.7392 F       1  UNL1       -0.2042
     27 C         141.9628  145.4049  155.5602 C.ar    1  UNL1        0.0293
     28 C         142.1952  145.0400  156.9965 C.ar    1  UNL1       -0.0019
@<TRIPOS>BOND
     1     1     2    1
     2     2     3    1
     3     3     4    1
     4     4     5    1
     5     5     6    1
     6     6     7    1
     7     7    20    1
     8    20    21    1
     9    21    22    1
    10    22    23   ar
    11    23    24   ar
    12    24    25   ar
    13    25    26    1
    14    25    27   ar
    15    27    28   ar
    16     7     8    1
    17     8     9    1
    18     4    10    1
    19    10    11    1
    20    11    14    1
    21    14    15   ar
    22    15    16   ar
    23    16    17   ar
    24    17    18   ar
    25    18    19   ar
    26    11    12   am
    27    12    13    2
    28    12     2    1
    29     9     4    1
    30    19    14   ar
    31    28    22   ar
@<TRIPOS>MOLECULE
*****
 28 31 0 0 0
SMALL
GASTEIGER

@<TRIPOS>ATOM
      1 C         137.7291  138.3221  166.7517 C.3     1  UNL1        0.0420
      2 C         138.6018  139.4992  166.4306 C.3     1  UNL1        0.1912
      3 O         138.6331  140.0515  165.0364 O.3     1  UNL1       -0.3500
      4 C         139.5057  141.2286  164.7153 C.3     1  UNL1        0.1145
      5 C         140.3783  142.4056  164.3944 C.3     1  UNL1        0.0463
      6 C         140.4096  142.9579  163.0001 C.3     1  UNL1        0.0746
      7 N         139.5684  142.3331  161.9269 N.3     1  UNL1       -0.2722
      8 C         138.6958  141.1561  162.2478 C.3     1  UNL1        0.0746
      9 C         138.6644  140.6038  163.6421 C.3     1  UNL1        0.0463
     10 C         140.3470  141.8534  165.7886 C.3     1  UNL1        0.1254
     11 N         140.3157  141.3010  167.1829 N.am    1  UNL1       -0.2543
     12 C         139.4431  140.1240  167.5039 C.2     1  UNL1        0.2566
     13 O         139.4117  139.5716  168.8982 O.2     1  UNL1       -0.2719
     14 C         141.1570  141.9258  168.2562 C.ar    1  UNL1        0.0540
     15 C         142.5740  141.4761  168.4554 C.ar    1  UNL1        0.0149
     16 C         143.4153  142.1009  169.5287 C.ar    1  UNL1        0.0013
     17 C         142.8395  143.1753  170.4027 C.ar    1  UNL1        0.0001
     18 C         141.4224  143.6251  170.2035 C.ar    1  UNL1        0.0013
     19 C         140.5811  143.0003  169.1303 C.ar    1  UNL1        0.0149
     20 C         139.5997  142.8855  160.5325 C.3     1  UNL1        0.0768
     21 C         140.6303  143.9073  160.1536 C.3     1  UNL1        0.0437
     22 C         141.9284  143.4718  159.5407 C.ar    1  UNL1       -0.0206
     23 C         142.1200  143.5505  158.0551 C.ar    1  UNL1       -0.0019
     24 C         143.4179  143.1151  157.4423 C.ar    1  UNL1        0.0293
     25 C         144.5243  142.6008  158.3150 C.ar    1  UNL1        0.1401
     26 F         145.8223  142.1654  157.7021 F       1  UNL1       -0.2042
     27 C         144.3326  142.5221  159.8006 C.ar    1  UNL1        0.0293
     28 C         143.0347  142.9576  160.4134 C.ar    1  UNL1       -0.0019
@<TRIPOS>BOND
     1     1     2    1
     2     2     3    1
     3     3     4    1
     4     4     5    1
     5     5     6    1
     6     6     7    1
     7     7    20    1
     8    20    21    1
     9    21    22    1
    10    22    23   ar
    11    23    24   ar
    12    24    25   ar
    13    25    26    1
    14    25    27   ar
    15    27    28   ar
    16     7     8    1
    17     8     9    1
    18     4    10    1
    19    10    11    1
    20    11    14    1
    21    14    15   ar
    22    15    16   ar
    23    16    17   ar
    24    17    18   ar
    25    18    19   ar
    26    11    12   am
    27    12    13    2
    28    12     2    1
    29     9     4    1
    30    19    14   ar
    31    28    22   ar
@<TRIPOS>MOLECULE
*****
 28 31 0 0 0
SMALL
GASTEIGER

@<TRIPOS>ATOM
      1 C         138.3074  138.4472  162.0425 C.3     1  UNL1        0.0420
      2 C         139.6328  138.6958  161.3855 C.3     1  UNL1        0.1912
      3 O         139.8101  138.4122  159.9233 O.3     1  UNL1       -0.3500
      4 C         141.1355  138.6608  159.2663 C.3     1  UNL1        0.1145
      5 C         142.4608  138.9094  158.6094 C.3     1  UNL1        0.0463
      6 C         142.6381  138.6258  157.1472 C.3     1  UNL1        0.0746
      7 N         141.4899  138.0935  156.3419 N.3     1  UNL1       -0.2722
      8 C         140.1646  137.8449  156.9988 C.3     1  UNL1        0.0746
      9 C         139.9874  138.1285  158.4610 C.3     1  UNL1        0.0463
     10 C         142.2836  139.1931  160.0716 C.3     1  UNL1        0.1254
     11 N         142.1063  139.4768  161.5339 N.am    1  UNL1       -0.2543
     12 C         140.7810  139.2281  162.1908 C.2     1  UNL1        0.2566
     13 O         140.6037  139.5118  163.6530 O.2     1  UNL1       -0.2719
     14 C         143.2544  140.0090  162.3391 C.ar    1  UNL1        0.0540
     15 C         143.7264  141.4177  162.1322 C.ar    1  UNL1        0.0149
     16 C         144.8745  141.9500  162.9375 C.ar    1  UNL1        0.0013
     17 C         145.5507  141.0736  163.9497 C.ar    1  UNL1        0.0001
     18 C         145.0787  139.6649  164.1568 C.ar    1  UNL1        0.0013
     19 C         143.9306  139.1326  163.3515 C.ar    1  UNL1        0.0149
     20 C         141.6672  137.8098  154.8796 C.3     1  UNL1        0.0768
     21 C         142.6291  136.7492  154.4326 C.3     1  UNL1        0.0437
     22 C         142.6774  135.4311  155.1470 C.ar    1  UNL1       -0.0206
     23 C         143.7528  135.1651  156.1583 C.ar    1  UNL1       -0.0019
     24 C         143.8010  133.8471  156.8727 C.ar    1  UNL1        0.0293
     25 C         142.7738  132.7950  156.5758 C.ar    1  UNL1        0.1401
     26 F         142.8220  131.4769  157.2902 F       1  UNL1       -0.2042
     27 C         141.6984  133.0611  155.5645 C.ar    1  UNL1        0.0293
     28 C         141.6502  134.3791  154.8501 C.ar    1  UNL1       -0.0019
@<TRIPOS>BOND
     1     1     2    1
     2     2     3    1
     3     3     4    1
     4     4     5    1
     5     5     6    1
     6     6     7    1
     7     7    20    1
     8    20    21    1
     9    21    22    1
    10    22    23   ar
    11    23    24   ar
    12    24    25   ar
    13    25    26    1
    14    25    27   ar
    15    27    28   ar
    16     7     8    1
    17     8     9    1
    18     4    10    1
    19    10    11    1
    20    11    14    1
    21    14    15   ar
    22    15    16   ar
    23    16    17   ar
    24    17    18   ar
    25    18    19   ar
    26    11    12   am
    27    12    13    2
    28    12     2    1
    29     9     4    1
    30    19    14   ar
    31    28    22   ar
@<TRIPOS>MOLECULE
*****
 28 31 0 0 0
SMALL
GASTEIGER

@<TRIPOS>ATOM
      1 C         143.5356  140.1921  155.2867 C.3     1  UNL1        0.0420
      2 C         143.2933  139.1592  156.3472 C.3     1  UNL1        0.1912
      3 O         143.2565  139.5618  157.7916 O.3     1  UNL1       -0.3500
      4 C         143.0142  138.5289  158.8522 C.3     1  UNL1        0.1145
      5 C         142.7719  137.4961  159.9126 C.3     1  UNL1        0.0463
      6 C         142.7351  137.8987  161.3571 C.3     1  UNL1        0.0746
      7 N         142.9404  139.3341  161.7411 N.3     1  UNL1       -0.2722
      8 C         143.1827  140.3669  160.6807 C.3     1  UNL1        0.0746
      9 C         143.2196  139.9643  159.2362 C.3     1  UNL1        0.0463
     10 C         142.8088  137.0936  158.4681 C.3     1  UNL1        0.1254
     11 N         142.8457  136.6910  157.0236 N.am    1  UNL1       -0.2543
     12 C         143.0880  137.7238  155.9631 C.2     1  UNL1        0.2566
     13 O         143.1249  137.3213  154.5186 O.2     1  UNL1       -0.2719
     14 C         142.6404  135.2556  156.6395 C.ar    1  UNL1        0.0540
     15 C         143.5055  134.1875  157.2399 C.ar    1  UNL1        0.0149
     16 C         143.3001  132.7521  156.8559 C.ar    1  UNL1        0.0013
     17 C         142.2296  132.3849  155.8714 C.ar    1  UNL1        0.0001
     18 C         141.3644  133.4531  155.2710 C.ar    1  UNL1        0.0013
     19 C         141.5698  134.8885  155.6550 C.ar    1  UNL1        0.0149
     20 C         142.9035  139.7366  163.1857 C.3     1  UNL1        0.0768
     21 C         142.5962  138.7160  164.2410 C.3     1  UNL1        0.0437
     22 C         141.2525  138.7078  164.9077 C.ar    1  UNL1       -0.0206
     23 C         140.2246  137.6899  164.5110 C.ar    1  UNL1       -0.0019
     24 C         138.8810  137.6817  165.1777 C.ar    1  UNL1        0.0293
     25 C         138.5652  138.6913  166.2411 C.ar    1  UNL1        0.1401
     26 F         137.2215  138.6831  166.9078 F       1  UNL1       -0.2042
     27 C         139.5930  139.7092  166.6379 C.ar    1  UNL1        0.0293
     28 C         140.9367  139.7174  165.9712 C.ar    1  UNL1       -0.0019
@<TRIPOS>BOND
     1     1     2    1
     2     2     3    1
     3     3     4    1
     4     4     5    1
     5     5     6    1
     6     6     7    1
     7     7    20    1
     8    20    21    1
     9    21    22    1
    10    22    23   ar
    11    23    24   ar
    12    24    25   ar
    13    25    26    1
    14    25    27   ar
    15    27    28   ar
    16     7     8    1
    17     8     9    1
    18     4    10    1
    19    10    11    1
    20    11    14    1
    21    14    15   ar
    22    15    16   ar
    23    16    17   ar
    24    17    18   ar
    25    18    19   ar
    26    11    12   am
    27    12    13    2
    28    12     2    1
    29     9     4    1
    30    19    14   ar
    31    28    22   ar
@<TRIPOS>MOLECULE
*****
 28 31 0 0 0
SMALL
GASTEIGER

@<TRIPOS>ATOM
      1 C         139.6796  146.5029  161.6790 C.3     1  UNL1        0.0420
      2 C         140.2446  145.1179  161.7921 C.3     1  UNL1        0.1912
      3 O         139.9385  144.2791  162.9973 O.3     1  UNL1       -0.3500
      4 C         140.5036  142.8941  163.1104 C.3     1  UNL1        0.1145
      5 C         141.0686  141.5093  163.2234 C.3     1  UNL1        0.0463
      6 C         140.7625  140.6704  164.4286 C.3     1  UNL1        0.0746
      7 N         139.8913  141.2165  165.5208 N.3     1  UNL1       -0.2722
      8 C         139.3263  142.6013  165.4078 C.3     1  UNL1        0.0746
      9 C         139.6324  143.4402  164.2026 C.3     1  UNL1        0.0463
     10 C         141.3747  142.3481  162.0182 C.3     1  UNL1        0.1254
     11 N         141.6808  143.1870  160.8129 N.am    1  UNL1       -0.2543
     12 C         141.1158  144.5719  160.6999 C.2     1  UNL1        0.2566
     13 O         141.4219  145.4108  159.4946 O.2     1  UNL1       -0.2719
     14 C         142.5520  142.6410  159.7207 C.ar    1  UNL1        0.0540
     15 C         141.9351  141.9194  158.5593 C.ar    1  UNL1        0.0149
     16 C         142.8063  141.3734  157.4671 C.ar    1  UNL1        0.0013
     17 C         144.2944  141.5489  157.5363 C.ar    1  UNL1        0.0001
     18 C         144.9113  142.2705  158.6977 C.ar    1  UNL1        0.0013
     19 C         144.0402  142.8165  159.7899 C.ar    1  UNL1        0.0149
     20 C         139.5852  140.3776  166.7261 C.3     1  UNL1        0.0768
     21 C         140.6934  139.9444  167.6395 C.3     1  UNL1        0.0437
     22 C         141.3794  140.9502  168.5157 C.ar    1  UNL1       -0.0206
     23 C         140.6550  142.1931  168.9403 C.ar    1  UNL1       -0.0019
     24 C         141.3410  143.1988  169.8165 C.ar    1  UNL1        0.0293
     25 C         142.7516  142.9615  170.2682 C.ar    1  UNL1        0.1401
     26 F         143.4377  143.9673  171.1445 F       1  UNL1       -0.2042
     27 C         143.4761  141.7186  169.8437 C.ar    1  UNL1        0.0293
     28 C         142.7900  140.7130  168.9675 C.ar    1  UNL1       -0.0019
@<TRIPOS>BOND
     1     1     2    1
     2     2     3    1
     3     3     4    1
     4     4     5    1
     5     5     6    1
     6     6     7    1
     7     7    20    1
     8    20    21    1
     9    21    22    1
    10    22    23   ar
    11    23    24   ar
    12    24    25   ar
    13    25    26    1
    14    25    27   ar
    15    27    28   ar
    16     7     8    1
    17     8     9    1
    18     4    10    1
    19    10    11    1
    20    11    14    1
    21    14    15   ar
    22    15    16   ar
    23    16    17   ar
    24    17    18   ar
    25    18    19   ar
    26    11    12   am
    27    12    13    2
    28    12     2    1
    29     9     4    1
    30    19    14   ar
    31    28    22   ar
