@<TRIPOS>MOLECULE
*****
 27 29 0 0 0
SMALL
GASTEIGER

@<TRIPOS>ATOM
      1 C         140.0222  141.0731  168.9774 C.ar    1  UNL1        0.0277
      2 C         140.5319  141.4303  167.6126 C.ar    1  UNL1        0.0014
      3 C         139.9337  140.7873  166.3966 C.ar    1  UNL1        0.0145
      4 C         138.8257  139.7872  166.5453 C.ar    1  UNL1        0.0513
      5 C         138.3160  139.4300  167.9102 C.ar    1  UNL1        0.0509
      6 C         138.9142  140.0730  169.1262 C.ar    1  UNL1        0.1322
      7 O         138.4045  139.7158  170.4909 O.3     1  UNL1       -0.5057
      8 H         137.7124  139.0911  170.5839 H       1  UNL1        0.2922
      9 N         138.2275  139.1442  165.3293 N.pl3   1  UNL1       -0.3124
     10 H         137.2497  139.1178  165.2171 H       1  UNL1        0.1522
     11 C         139.1190  138.5416  164.2842 C.ar    1  UNL1        0.0513
     12 C         140.1732  137.5502  164.6787 C.ar    1  UNL1        0.0353
     13 C         141.0646  136.9476  163.6336 C.ar    1  UNL1        0.1001
     14 N         140.9018  137.3365  162.1941 N.ar    1  UNL1       -0.2437
     15 C         139.8476  138.3279  161.7996 C.ar    1  UNL1        0.0833
     16 C         139.6848  138.7167  160.3600 C.ar    1  UNL1        0.0305
     17 C         138.6305  139.7082  159.9656 C.ar    1  UNL1        0.0592
     18 CL        138.4677  140.0970  158.5260 Cl      1  UNL1       -0.0822
     19 C         137.7390  140.3108  161.0107 C.ar    1  UNL1        0.0115
     20 C         137.9018  139.9219  162.4502 C.ar    1  UNL1        0.0036
     21 C         138.9562  138.9305  162.8447 C.ar    1  UNL1        0.0312
     22 C         140.6205  141.7161  170.1934 C.3     1  UNL1        0.1022
     23 N         142.0974  141.6261  170.4395 N.3     1  UNL1       -0.2689
     24 C         144.4031  142.7000  169.9096 C.3     1  UNL1        0.0188
     25 C         142.9586  142.8448  170.2876 C.3     1  UNL1        0.0724
     26 C         142.7131  140.3175  170.8376 C.3     1  UNL1        0.0724
     27 C         142.5308  139.1080  169.9694 C.3     1  UNL1        0.0188
@<TRIPOS>BOND
     1    24    25    1
     2    25    23    1
     3    23    26    1
     4    26    27    1
     5    23    22    1
     6    22     1    1
     7     1     2   ar
     8     2     3   ar
     9     3     4   ar
    10     4     9    1
    11     9    11    1
    12    11    12   ar
    13    12    13   ar
    14    13    14   ar
    15    14    15   ar
    16    15    16   ar
    17    16    17   ar
    18    17    18    1
    19    17    19   ar
    20    19    20   ar
    21    20    21   ar
    22     4     5   ar
    23     5     6   ar
    24     6     7    1
    25     6     1   ar
    26    21    11   ar
    27    21    15   ar
    28     9    10    1
    29     7     8    1
@<TRIPOS>MOLECULE
*****
 27 29 0 0 0
SMALL
GASTEIGER

@<TRIPOS>ATOM
      1 C         139.9149  141.1337  168.8293 C.ar    1  UNL1        0.0277
      2 C         138.9226  140.0227  169.0055 C.ar    1  UNL1        0.0014
      3 C         138.3620  139.3203  167.8045 C.ar    1  UNL1        0.0145
      4 C         138.7938  139.7288  166.4273 C.ar    1  UNL1        0.0513
      5 C         139.7861  140.8398  166.2511 C.ar    1  UNL1        0.0509
      6 C         140.3467  141.5422  167.4521 C.ar    1  UNL1        0.1322
      7 O         141.3391  142.6531  167.2759 O.3     1  UNL1       -0.5057
      8 H         141.6088  142.9083  166.4156 H       1  UNL1        0.2922
      9 N         138.2332  139.0264  165.2264 N.pl3   1  UNL1       -0.3124
     10 H         137.2594  138.9201  165.1282 H       1  UNL1        0.1522
     11 C         139.1564  138.4859  164.1748 C.ar    1  UNL1        0.0513
     12 C         140.2611  137.5463  164.5578 C.ar    1  UNL1        0.0353
     13 C         141.1843  137.0059  163.5063 C.ar    1  UNL1        0.1001
     14 N         141.0026  137.4050  162.0718 N.ar    1  UNL1       -0.2437
     15 C         139.8979  138.3445  161.6889 C.ar    1  UNL1        0.0833
     16 C         139.7163  138.7436  160.2544 C.ar    1  UNL1        0.0305
     17 C         138.6116  139.6832  159.8714 C.ar    1  UNL1        0.0592
     18 CL        138.4299  140.0823  158.4369 Cl      1  UNL1       -0.0822
     19 C         137.6883  140.2237  160.9229 C.ar    1  UNL1        0.0115
     20 C         137.8700  139.8246  162.3574 C.ar    1  UNL1        0.0036
     21 C         138.9748  138.8850  162.7404 C.ar    1  UNL1        0.0312
     22 C         140.4755  141.8361  170.0303 C.3     1  UNL1        0.1022
     23 N         141.9193  141.6594  170.3965 N.3     1  UNL1       -0.2689
     24 C         142.4980  139.1972  169.8024 C.3     1  UNL1        0.0188
     25 C         142.4293  140.3096  170.8064 C.3     1  UNL1        0.0724
     26 C         142.8532  142.8324  170.3527 C.3     1  UNL1        0.0724
     27 C         144.2738  142.6440  169.9099 C.3     1  UNL1        0.0188
@<TRIPOS>BOND
     1    24    25    1
     2    25    23    1
     3    23    26    1
     4    26    27    1
     5    23    22    1
     6    22     1    1
     7     1     2   ar
     8     2     3   ar
     9     3     4   ar
    10     4     9    1
    11     9    11    1
    12    11    12   ar
    13    12    13   ar
    14    13    14   ar
    15    14    15   ar
    16    15    16   ar
    17    16    17   ar
    18    17    18    1
    19    17    19   ar
    20    19    20   ar
    21    20    21   ar
    22     4     5   ar
    23     5     6   ar
    24     6     7    1
    25     6     1   ar
    26    21    11   ar
    27    21    15   ar
    28     9    10    1
    29     7     8    1
@<TRIPOS>MOLECULE
*****
 27 29 0 0 0
SMALL
GASTEIGER

@<TRIPOS>ATOM
      1 C         142.2371  140.0610  167.2542 C.ar    1  UNL1        0.0277
      2 C         142.9775  138.7797  167.0095 C.ar    1  UNL1        0.0014
      3 C         143.9099  138.6637  165.8403 C.ar    1  UNL1        0.0145
      4 C         144.1019  139.8291  164.9156 C.ar    1  UNL1        0.0513
      5 C         143.3615  141.1106  165.1602 C.ar    1  UNL1        0.0509
      6 C         142.4290  141.2265  166.3295 C.ar    1  UNL1        0.1322
      7 O         141.6886  142.5079  166.5741 O.3     1  UNL1       -0.5057
      8 H         141.8085  143.2359  165.9965 H       1  UNL1        0.2922
      9 N         145.0343  139.7132  163.7464 N.pl3   1  UNL1       -0.3124
     10 H         145.8441  139.1576  163.8158 H       1  UNL1        0.1522
     11 C         144.7329  140.4438  162.4714 C.ar    1  UNL1        0.0513
     12 C         145.0789  141.8974  162.3402 C.ar    1  UNL1        0.0353
     13 C         144.7775  142.6279  161.0653 C.ar    1  UNL1        0.1001
     14 N         144.1301  141.9048  159.9216 N.ar    1  UNL1       -0.2437
     15 C         143.7842  140.4512  160.0528 C.ar    1  UNL1        0.0833
     16 C         143.1368  139.7280  158.9091 C.ar    1  UNL1        0.0305
     17 C         142.7908  138.2744  159.0403 C.ar    1  UNL1        0.0592
     18 CL        142.1435  137.5513  157.8966 Cl      1  UNL1       -0.0822
     19 C         143.0922  137.5438  160.3153 C.ar    1  UNL1        0.0115
     20 C         143.7396  138.2669  161.4590 C.ar    1  UNL1        0.0036
     21 C         144.0856  139.7206  161.3277 C.ar    1  UNL1        0.0312
     22 C         141.3047  140.1770  168.4234 C.3     1  UNL1        0.1022
     23 N         141.5963  141.1569  169.5210 N.3     1  UNL1       -0.2689
     24 C         140.4268  143.4741  169.6354 C.3     1  UNL1        0.0188
     25 C         140.5026  142.0352  170.0525 C.3     1  UNL1        0.0724
     26 C         142.9817  141.2586  170.0871 C.3     1  UNL1        0.0724
     27 C         143.8798  142.3867  169.6739 C.3     1  UNL1        0.0188
@<TRIPOS>BOND
     1    24    25    1
     2    25    23    1
     3    23    26    1
     4    26    27    1
     5    23    22    1
     6    22     1    1
     7     1     2   ar
     8     2     3   ar
     9     3     4   ar
    10     4     9    1
    11     9    11    1
    12    11    12   ar
    13    12    13   ar
    14    13    14   ar
    15    14    15   ar
    16    15    16   ar
    17    16    17   ar
    18    17    18    1
    19    17    19   ar
    20    19    20   ar
    21    20    21   ar
    22     4     5   ar
    23     5     6   ar
    24     6     7    1
    25     6     1   ar
    26    21    11   ar
    27    21    15   ar
    28     9    10    1
    29     7     8    1
@<TRIPOS>MOLECULE
*****
 27 29 0 0 0
SMALL
GASTEIGER

@<TRIPOS>ATOM
      1 C         142.2830  140.2636  167.2438 C.ar    1  UNL1        0.0277
      2 C         143.2254  139.1575  166.8721 C.ar    1  UNL1        0.0014
      3 C         142.8232  138.1439  165.8421 C.ar    1  UNL1        0.0145
      4 C         141.4787  138.2365  165.1837 C.ar    1  UNL1        0.0513
      5 C         140.5362  139.3427  165.5554 C.ar    1  UNL1        0.0509
      6 C         140.9383  140.3563  166.5854 C.ar    1  UNL1        0.1322
      7 O         139.9959  141.4625  166.9570 O.3     1  UNL1       -0.5057
      8 H         139.1560  141.5204  166.5458 H       1  UNL1        0.2922
      9 N         141.0765  137.2230  164.1537 N.pl3   1  UNL1       -0.3124
     10 H         141.3229  136.2771  164.2714 H       1  UNL1        0.1522
     11 C         140.2990  137.6506  162.9443 C.ar    1  UNL1        0.0513
     12 C         138.8011  137.7085  162.9976 C.ar    1  UNL1        0.0353
     13 C         138.0236  138.1362  161.7882 C.ar    1  UNL1        0.1001
     14 N         138.7440  138.5058  160.5255 N.ar    1  UNL1       -0.2437
     15 C         140.2419  138.4479  160.4722 C.ar    1  UNL1        0.0833
     16 C         140.9623  138.8176  159.2096 C.ar    1  UNL1        0.0305
     17 C         142.4602  138.7596  159.1563 C.ar    1  UNL1        0.0592
     18 CL        143.1807  139.1293  157.8936 Cl      1  UNL1       -0.0822
     19 C         143.2378  138.3320  160.3657 C.ar    1  UNL1        0.0115
     20 C         142.5174  137.9623  161.6283 C.ar    1  UNL1        0.0036
     21 C         141.0194  138.0203  161.6816 C.ar    1  UNL1        0.0312
     22 C         142.6851  141.2772  168.2738 C.3     1  UNL1        0.1022
     23 N         141.8475  141.4703  169.5030 N.3     1  UNL1       -0.2689
     24 C         140.5005  143.6850  169.6791 C.3     1  UNL1        0.0188
     25 C         141.6734  142.8422  170.0841 C.3     1  UNL1        0.0724
     26 C         141.1838  140.2915  170.1512 C.3     1  UNL1        0.0724
     27 C         139.6871  140.2053  170.1977 C.3     1  UNL1        0.0188
@<TRIPOS>BOND
     1    24    25    1
     2    25    23    1
     3    23    26    1
     4    26    27    1
     5    23    22    1
     6    22     1    1
     7     1     2   ar
     8     2     3   ar
     9     3     4   ar
    10     4     9    1
    11     9    11    1
    12    11    12   ar
    13    12    13   ar
    14    13    14   ar
    15    14    15   ar
    16    15    16   ar
    17    16    17   ar
    18    17    18    1
    19    17    19   ar
    20    19    20   ar
    21    20    21   ar
    22     4     5   ar
    23     5     6   ar
    24     6     7    1
    25     6     1   ar
    26    21    11   ar
    27    21    15   ar
    28     9    10    1
    29     7     8    1
@<TRIPOS>MOLECULE
*****
 27 29 0 0 0
SMALL
GASTEIGER

@<TRIPOS>ATOM
      1 C         140.4131  139.9710  168.4708 C.ar    1  UNL1        0.0277
      2 C         141.2865  140.0450  167.2536 C.ar    1  UNL1        0.0014
      3 C         140.6965  139.8232  165.8925 C.ar    1  UNL1        0.0145
      4 C         139.2330  139.5273  165.7486 C.ar    1  UNL1        0.0513
      5 C         138.3595  139.4533  166.9659 C.ar    1  UNL1        0.0509
      6 C         138.9496  139.6752  168.3270 C.ar    1  UNL1        0.1322
      7 O         138.0762  139.6012  169.5442 O.3     1  UNL1       -0.5057
      8 H         137.1620  139.4164  169.4543 H       1  UNL1        0.2922
      9 N         138.6430  139.3055  164.3875 N.pl3   1  UNL1       -0.3124
     10 H         138.4446  138.3916  164.0800 H       1  UNL1        0.1522
     11 C         138.3551  140.4763  163.4950 C.ar    1  UNL1        0.0513
     12 C         137.9122  141.7807  164.0884 C.ar    1  UNL1        0.0353
     13 C         137.6244  142.9514  163.1958 C.ar    1  UNL1        0.1001
     14 N         137.7795  142.8176  161.7099 N.ar    1  UNL1       -0.2437
     15 C         138.2224  141.5131  161.1165 C.ar    1  UNL1        0.0833
     16 C         138.3775  141.3793  159.6305 C.ar    1  UNL1        0.0305
     17 C         138.8203  140.0748  159.0371 C.ar    1  UNL1        0.0592
     18 CL        138.9754  139.9410  157.5512 Cl      1  UNL1       -0.0822
     19 C         139.1082  138.9041  159.9297 C.ar    1  UNL1        0.0115
     20 C         138.9531  139.0379  161.4156 C.ar    1  UNL1        0.0036
     21 C         138.5102  140.3424  162.0090 C.ar    1  UNL1        0.0312
     22 C         141.0032  140.1929  169.8320 C.3     1  UNL1        0.1022
     23 N         141.3590  141.5800  170.2782 N.3     1  UNL1       -0.2689
     24 C         140.2816  143.8567  169.6409 C.3     1  UNL1        0.0188
     25 C         140.2815  142.6060  170.4691 C.3     1  UNL1        0.0724
     26 C         142.7923  141.9413  170.5335 C.3     1  UNL1        0.0724
     27 C         143.6667  142.3879  169.3995 C.3     1  UNL1        0.0188
@<TRIPOS>BOND
     1    24    25    1
     2    25    23    1
     3    23    26    1
     4    26    27    1
     5    23    22    1
     6    22     1    1
     7     1     2   ar
     8     2     3   ar
     9     3     4   ar
    10     4     9    1
    11     9    11    1
    12    11    12   ar
    13    12    13   ar
    14    13    14   ar
    15    14    15   ar
    16    15    16   ar
    17    16    17   ar
    18    17    18    1
    19    17    19   ar
    20    19    20   ar
    21    20    21   ar
    22     4     5   ar
    23     5     6   ar
    24     6     7    1
    25     6     1   ar
    26    21    11   ar
    27    21    15   ar
    28     9    10    1
    29     7     8    1
@<TRIPOS>MOLECULE
*****
 27 29 0 0 0
SMALL
GASTEIGER

@<TRIPOS>ATOM
      1 C         142.6753  140.5248  167.0599 C.ar    1  UNL1        0.0277
      2 C         142.9785  141.9720  167.3124 C.ar    1  UNL1        0.0014
      3 C         143.7005  142.7792  166.2746 C.ar    1  UNL1        0.0145
      4 C         144.1193  142.1393  164.9843 C.ar    1  UNL1        0.0513
      5 C         143.8162  140.6921  164.7317 C.ar    1  UNL1        0.0509
      6 C         143.0941  139.8849  165.7695 C.ar    1  UNL1        0.1322
      7 O         142.7909  138.4377  165.5169 O.3     1  UNL1       -0.5057
      8 H         143.0526  138.0380  164.7109 H       1  UNL1        0.2922
      9 N         144.8414  142.9465  163.9464 N.pl3   1  UNL1       -0.3124
     10 H         145.6885  143.3943  164.1726 H       1  UNL1        0.1522
     11 C         144.2727  143.0716  162.5640 C.ar    1  UNL1        0.0513
     12 C         144.9185  142.3490  161.4192 C.ar    1  UNL1        0.0353
     13 C         144.3497  142.4741  160.0368 C.ar    1  UNL1        0.1001
     14 N         143.1352  143.3218  159.7994 N.ar    1  UNL1       -0.2437
     15 C         142.4894  144.0444  160.9442 C.ar    1  UNL1        0.0833
     16 C         141.2749  144.8920  160.7068 C.ar    1  UNL1        0.0305
     17 C         140.6291  145.6146  161.8516 C.ar    1  UNL1        0.0592
     18 CL        139.4146  146.4623  161.6142 Cl      1  UNL1       -0.0822
     19 C         141.1978  145.4896  163.2341 C.ar    1  UNL1        0.0115
     20 C         142.4123  144.6419  163.4715 C.ar    1  UNL1        0.0036
     21 C         143.0581  143.9193  162.3266 C.ar    1  UNL1        0.0312
     22 C         141.9533  139.7176  168.0977 C.3     1  UNL1        0.1022
     23 N         140.4858  139.9290  168.3252 N.3     1  UNL1       -0.2689
     24 C         139.2712  140.7340  166.1742 C.3     1  UNL1        0.0188
     25 C         139.5107  139.6789  167.2132 C.3     1  UNL1        0.0724
     26 C         139.9934  140.3906  169.6648 C.3     1  UNL1        0.0724
     27 C         138.5418  140.2550  170.0178 C.3     1  UNL1        0.0188
@<TRIPOS>BOND
     1    24    25    1
     2    25    23    1
     3    23    26    1
     4    26    27    1
     5    23    22    1
     6    22     1    1
     7     1     2   ar
     8     2     3   ar
     9     3     4   ar
    10     4     9    1
    11     9    11    1
    12    11    12   ar
    13    12    13   ar
    14    13    14   ar
    15    14    15   ar
    16    15    16   ar
    17    16    17   ar
    18    17    18    1
    19    17    19   ar
    20    19    20   ar
    21    20    21   ar
    22     4     5   ar
    23     5     6   ar
    24     6     7    1
    25     6     1   ar
    26    21    11   ar
    27    21    15   ar
    28     9    10    1
    29     7     8    1
@<TRIPOS>MOLECULE
*****
 27 29 0 0 0
SMALL
GASTEIGER

@<TRIPOS>ATOM
      1 C         139.7115  140.1949  167.9080 C.ar    1  UNL1        0.0277
      2 C         140.5920  141.1152  167.1158 C.ar    1  UNL1        0.0014
      3 C         140.3381  141.3204  165.6518 C.ar    1  UNL1        0.0145
      4 C         139.2036  140.6052  164.9799 C.ar    1  UNL1        0.0513
      5 C         138.3230  139.6848  165.7721 C.ar    1  UNL1        0.0509
      6 C         138.5770  139.4796  167.2361 C.ar    1  UNL1        0.1322
      7 O         137.6964  138.5593  168.0283 O.3     1  UNL1       -0.5057
      8 H         136.9877  138.1125  167.6086 H       1  UNL1        0.2922
      9 N         138.9497  140.8103  163.5159 N.pl3   1  UNL1       -0.3124
     10 H         138.8002  140.0344  162.9287 H       1  UNL1        0.1522
     11 C         138.9235  142.1979  162.9464 C.ar    1  UNL1        0.0513
     12 C         137.9145  143.1921  163.4398 C.ar    1  UNL1        0.0353
     13 C         137.8884  144.5795  162.8704 C.ar    1  UNL1        0.1001
     14 N         138.8711  144.9727  161.8076 N.ar    1  UNL1       -0.2437
     15 C         139.8801  143.9785  161.3142 C.ar    1  UNL1        0.0833
     16 C         140.8629  144.3717  160.2514 C.ar    1  UNL1        0.0305
     17 C         141.8718  143.3775  159.7580 C.ar    1  UNL1        0.0592
     18 CL        142.8546  143.7707  158.6953 Cl      1  UNL1       -0.0822
     19 C         141.8981  141.9899  160.3275 C.ar    1  UNL1        0.0115
     20 C         140.9153  141.5967  161.3903 C.ar    1  UNL1        0.0036
     21 C         139.9063  142.5911  161.8836 C.ar    1  UNL1        0.0312
     22 C         139.9654  139.9897  169.3720 C.3     1  UNL1        0.1022
     23 N         140.5756  141.0899  170.1888 N.3     1  UNL1       -0.2689
     24 C         140.4445  143.6641  169.8620 C.3     1  UNL1        0.0188
     25 C         139.8426  142.3864  170.3674 C.3     1  UNL1        0.0724
     26 C         141.9188  140.8937  170.8270 C.3     1  UNL1        0.0724
     27 C         142.8068  139.7721  170.3762 C.3     1  UNL1        0.0188
@<TRIPOS>BOND
     1    24    25    1
     2    25    23    1
     3    23    26    1
     4    26    27    1
     5    23    22    1
     6    22     1    1
     7     1     2   ar
     8     2     3   ar
     9     3     4   ar
    10     4     9    1
    11     9    11    1
    12    11    12   ar
    13    12    13   ar
    14    13    14   ar
    15    14    15   ar
    16    15    16   ar
    17    16    17   ar
    18    17    18    1
    19    17    19   ar
    20    19    20   ar
    21    20    21   ar
    22     4     5   ar
    23     5     6   ar
    24     6     7    1
    25     6     1   ar
    26    21    11   ar
    27    21    15   ar
    28     9    10    1
    29     7     8    1
@<TRIPOS>MOLECULE
*****
 27 29 0 0 0
SMALL
GASTEIGER

@<TRIPOS>ATOM
      1 C         141.2789  140.0011  168.5090 C.ar    1  UNL1        0.0277
      2 C         142.5321  139.9713  167.6853 C.ar    1  UNL1        0.0014
      3 C         142.4628  139.6285  166.2267 C.ar    1  UNL1        0.0145
      4 C         141.1404  139.3155  165.5917 C.ar    1  UNL1        0.0513
      5 C         139.8871  139.3454  166.4154 C.ar    1  UNL1        0.0509
      6 C         139.9563  139.6882  167.8741 C.ar    1  UNL1        0.1322
      7 O         138.7031  139.7180  168.6978 O.3     1  UNL1       -0.5057
      8 H         137.8770  139.5225  168.3012 H       1  UNL1        0.2922
      9 N         141.0712  138.9727  164.1331 N.pl3   1  UNL1       -0.3124
     10 H         141.7894  138.4432  163.7172 H       1  UNL1        0.1522
     11 C         139.9075  139.4368  163.3080 C.ar    1  UNL1        0.0513
     12 C         138.9651  138.4347  162.7100 C.ar    1  UNL1        0.0353
     13 C         137.8015  138.8988  161.8850 C.ar    1  UNL1        0.1001
     14 N         137.5804  140.3650  161.6579 N.ar    1  UNL1       -0.2437
     15 C         138.5229  141.3670  162.2559 C.ar    1  UNL1        0.0833
     16 C         138.3018  142.8332  162.0288 C.ar    1  UNL1        0.0305
     17 C         139.2443  143.8352  162.6268 C.ar    1  UNL1        0.0592
     18 CL        139.0232  145.3014  162.3997 Cl      1  UNL1       -0.0822
     19 C         140.4079  143.3711  163.4519 C.ar    1  UNL1        0.0115
     20 C         140.6290  141.9050  163.6789 C.ar    1  UNL1        0.0036
     21 C         139.6864  140.9029  163.0809 C.ar    1  UNL1        0.0312
     22 C         141.3481  140.3439  169.9677 C.3     1  UNL1        0.1022
     23 N         141.4384  141.7781  170.3976 N.3     1  UNL1       -0.2689
     24 C         140.2772  144.0385  169.8567 C.3     1  UNL1        0.0188
     25 C         140.2109  142.6403  170.3960 C.3     1  UNL1        0.0724
     26 C         142.7562  142.3502  170.8292 C.3     1  UNL1        0.0724
     27 C         143.8847  142.4582  169.8470 C.3     1  UNL1        0.0188
@<TRIPOS>BOND
     1    24    25    1
     2    25    23    1
     3    23    26    1
     4    26    27    1
     5    23    22    1
     6    22     1    1
     7     1     2   ar
     8     2     3   ar
     9     3     4   ar
    10     4     9    1
    11     9    11    1
    12    11    12   ar
    13    12    13   ar
    14    13    14   ar
    15    14    15   ar
    16    15    16   ar
    17    16    17   ar
    18    17    18    1
    19    17    19   ar
    20    19    20   ar
    21    20    21   ar
    22     4     5   ar
    23     5     6   ar
    24     6     7    1
    25     6     1   ar
    26    21    11   ar
    27    21    15   ar
    28     9    10    1
    29     7     8    1
@<TRIPOS>MOLECULE
*****
 27 29 0 0 0
SMALL
GASTEIGER

@<TRIPOS>ATOM
      1 C         139.7902  140.3855  167.6711 C.ar    1  UNL1        0.0277
      2 C         138.8297  139.3036  167.2751 C.ar    1  UNL1        0.0014
      3 C         138.0838  139.4010  165.9773 C.ar    1  UNL1        0.0145
      4 C         138.2984  140.5802  165.0755 C.ar    1  UNL1        0.0513
      5 C         139.2590  141.6623  165.4715 C.ar    1  UNL1        0.0509
      6 C         140.0048  141.5649  166.7693 C.ar    1  UNL1        0.1322
      7 O         140.9653  142.6468  167.1653 O.3     1  UNL1       -0.5057
      8 H         141.0994  143.3835  166.6020 H       1  UNL1        0.2922
      9 N         137.5525  140.6776  163.7778 N.pl3   1  UNL1       -0.3124
     10 H         136.6592  141.0905  163.7533 H       1  UNL1        0.1522
     11 C         138.1679  140.1458  162.5174 C.ar    1  UNL1        0.0513
     12 C         138.1728  138.6698  162.2500 C.ar    1  UNL1        0.0353
     13 C         138.7881  138.1381  160.9896 C.ar    1  UNL1        0.1001
     14 N         139.3985  139.0822  159.9966 N.ar    1  UNL1       -0.2437
     15 C         139.3935  140.5582  160.2640 C.ar    1  UNL1        0.0833
     16 C         140.0039  141.5023  159.2710 C.ar    1  UNL1        0.0305
     17 C         139.9989  142.9783  159.5384 C.ar    1  UNL1        0.0592
     18 CL        140.6093  143.9224  158.5454 Cl      1  UNL1       -0.0822
     19 C         139.3836  143.5101  160.7988 C.ar    1  UNL1        0.0115
     20 C         138.7732  142.5659  161.7918 C.ar    1  UNL1        0.0036
     21 C         138.7782  141.0899  161.5244 C.ar    1  UNL1        0.0312
     22 C         140.5361  140.2882  168.9688 C.3     1  UNL1        0.1022
     23 N         142.0306  140.1604  168.9672 N.3     1  UNL1       -0.2689
     24 C         143.0541  139.6593  166.6323 C.3     1  UNL1        0.0188
     25 C         142.7011  139.2105  168.0195 C.3     1  UNL1        0.0724
     26 C         142.8547  140.9826  169.9132 C.3     1  UNL1        0.0724
     27 C         143.5415  142.2237  169.4255 C.3     1  UNL1        0.0188
@<TRIPOS>BOND
     1    24    25    1
     2    25    23    1
     3    23    26    1
     4    26    27    1
     5    23    22    1
     6    22     1    1
     7     1     2   ar
     8     2     3   ar
     9     3     4   ar
    10     4     9    1
    11     9    11    1
    12    11    12   ar
    13    12    13   ar
    14    13    14   ar
    15    14    15   ar
    16    15    16   ar
    17    16    17   ar
    18    17    18    1
    19    17    19   ar
    20    19    20   ar
    21    20    21   ar
    22     4     5   ar
    23     5     6   ar
    24     6     7    1
    25     6     1   ar
    26    21    11   ar
    27    21    15   ar
    28     9    10    1
    29     7     8    1
