@<TRIPOS>MOLECULE
*****
 20 21 0 0 0
SMALL
GASTEIGER

@<TRIPOS>ATOM
      1 O         140.8882  141.1836  165.0664 O.3     1  UNL1       -0.4676
      2 C         140.9948  141.2269  166.5620 C.ar    1  UNL1        0.1408
      3 C         142.2261  141.7870  167.2103 C.ar    1  UNL1        0.0472
      4 C         142.3325  141.8303  168.7058 C.ar    1  UNL1        0.0721
      5 C         141.2078  141.3137  169.5531 C.ar    1  UNL1        0.0208
      6 C         139.9765  140.7536  168.9048 C.ar    1  UNL1        0.0721
      7 C         139.8700  140.7103  167.4093 C.ar    1  UNL1        0.0472
      8 C         143.5639  142.3904  169.3542 C.1     1  UNL1        0.1005
      9 N         144.7951  142.9504  170.0025 N.1     1  UNL1       -0.1908
     10 C         138.8517  140.2370  169.7521 C.1     1  UNL1        0.1005
     11 N         137.7269  139.7203  170.5994 N.1     1  UNL1       -0.1908
     12 C         138.8377  142.6384  164.1588 C.2     1  UNL1        0.1032
     13 N         137.5388  142.3299  163.4750 N.2     1  UNL1       -0.1533
     14 N         137.4498  140.8429  163.2983 N.2     1  UNL1       -0.1533
     15 C         138.6937  140.2326  163.8730 C.2     1  UNL1        0.1032
     16 C         139.5515  141.3422  164.4048 C.3     1  UNL1        0.2405
     17 C         138.5560  144.8490  165.4944 C.3     1  UNL1        0.0065
     18 C         139.3355  144.0035  164.5313 C.3     1  UNL1        0.0472
     19 C         139.0221  138.7694  163.9093 C.3     1  UNL1        0.0472
     20 C         138.7995  137.9818  165.1664 C.3     1  UNL1        0.0065
@<TRIPOS>BOND
     1    17    18    1
     2    18    12    1
     3    12    13    2
     4    13    14    1
     5    14    15    2
     6    15    19    1
     7    19    20    1
     8    15    16    1
     9    16     1    1
    10     1     2    1
    11     2     3   ar
    12     3     4   ar
    13     4     8    1
    14     8     9    3
    15     4     5   ar
    16     5     6   ar
    17     6    10    1
    18    10    11    3
    19     6     7   ar
    20    16    12    1
    21     7     2   ar
@<TRIPOS>MOLECULE
*****
 20 21 0 0 0
SMALL
GASTEIGER

@<TRIPOS>ATOM
      1 O         142.2989  141.6339  166.1197 O.3     1  UNL1       -0.4676
      2 C         140.9186  141.2871  165.6455 C.ar    1  UNL1        0.1408
      3 C         140.1207  140.2387  166.3625 C.ar    1  UNL1        0.0472
      4 C         138.7405  139.8920  165.8883 C.ar    1  UNL1        0.0721
      5 C         138.1583  140.5937  164.6972 C.ar    1  UNL1        0.0208
      6 C         138.9563  141.6421  163.9803 C.ar    1  UNL1        0.0721
      7 C         140.3365  141.9888  164.4545 C.ar    1  UNL1        0.0472
      8 C         137.9424  138.8436  166.6052 C.1     1  UNL1        0.1005
      9 N         137.1444  137.7952  167.3221 N.1     1  UNL1       -0.1908
     10 C         138.3741  142.3438  162.7892 C.1     1  UNL1        0.1005
     11 N         137.7919  143.0455  161.5981 N.1     1  UNL1       -0.1908
     12 C         144.0253  140.1333  164.7366 C.2     1  UNL1        0.1032
     13 N         145.1969  140.4152  163.8434 N.2     1  UNL1       -0.1533
     14 N         145.3702  141.9029  163.7618 N.2     1  UNL1       -0.1533
     15 C         144.3057  142.5405  164.6046 C.2     1  UNL1        0.1032
     16 C         143.4745  141.4469  165.2071 C.3     1  UNL1        0.2405
     17 C         143.5239  138.3151  166.5233 C.3     1  UNL1        0.0065
     18 C         143.4972  138.7762  165.0962 C.3     1  UNL1        0.0472
     19 C         144.1073  144.0132  164.8090 C.3     1  UNL1        0.0472
     20 C         143.1236  144.7625  163.9598 C.3     1  UNL1        0.0065
@<TRIPOS>BOND
     1    17    18    1
     2    18    12    1
     3    12    13    2
     4    13    14    1
     5    14    15    2
     6    15    19    1
     7    19    20    1
     8    15    16    1
     9    16     1    1
    10     1     2    1
    11     2     3   ar
    12     3     4   ar
    13     4     8    1
    14     8     9    3
    15     4     5   ar
    16     5     6   ar
    17     6    10    1
    18    10    11    3
    19     6     7   ar
    20    16    12    1
    21     7     2   ar
@<TRIPOS>MOLECULE
*****
 20 21 0 0 0
SMALL
GASTEIGER

@<TRIPOS>ATOM
      1 O         141.1785  140.9156  165.1129 O.3     1  UNL1       -0.4676
      2 C         141.3112  141.0050  166.6044 C.ar    1  UNL1        0.1408
      3 C         141.9190  139.8692  167.3727 C.ar    1  UNL1        0.0472
      4 C         142.0517  139.9587  168.8641 C.ar    1  UNL1        0.0721
      5 C         141.5765  141.1840  169.5872 C.ar    1  UNL1        0.0208
      6 C         140.9687  142.3198  168.8189 C.ar    1  UNL1        0.0721
      7 C         140.8360  142.2303  167.3274 C.ar    1  UNL1        0.0472
      8 C         142.6595  138.8228  169.6325 C.1     1  UNL1        0.1005
      9 N         143.2673  137.6870  170.4009 N.1     1  UNL1       -0.1908
     10 C         140.4935  143.5451  169.5419 C.1     1  UNL1        0.1005
     11 N         140.0184  144.7704  170.2650 N.1     1  UNL1       -0.1908
     12 C         139.8014  138.7389  164.3985 C.2     1  UNL1        0.1032
     13 N         140.1190  137.4843  163.6401 N.2     1  UNL1       -0.1533
     14 N         141.5587  137.5464  163.2236 N.2     1  UNL1       -0.1533
     15 C         142.1308  138.8394  163.7247 C.2     1  UNL1        0.1032
     16 C         141.0447  139.5763  164.4508 C.3     1  UNL1        0.2405
     17 C         138.2550  138.9467  166.4759 C.3     1  UNL1        0.0065
     18 C         138.4735  139.0937  164.9992 C.3     1  UNL1        0.0472
     19 C         143.5414  139.3122  163.5332 C.3     1  UNL1        0.0472
     20 C         144.5011  139.2956  164.6859 C.3     1  UNL1        0.0065
@<TRIPOS>BOND
     1    17    18    1
     2    18    12    1
     3    12    13    2
     4    13    14    1
     5    14    15    2
     6    15    19    1
     7    19    20    1
     8    15    16    1
     9    16     1    1
    10     1     2    1
    11     2     3   ar
    12     3     4   ar
    13     4     8    1
    14     8     9    3
    15     4     5   ar
    16     5     6   ar
    17     6    10    1
    18    10    11    3
    19     6     7   ar
    20    16    12    1
    21     7     2   ar
@<TRIPOS>MOLECULE
*****
 20 21 0 0 0
SMALL
GASTEIGER

@<TRIPOS>ATOM
      1 O         142.3087  141.6254  166.1209 O.3     1  UNL1       -0.4676
      2 C         140.9266  141.2833  165.6487 C.ar    1  UNL1        0.1408
      3 C         140.1268  140.2363  166.3656 C.ar    1  UNL1        0.0472
      4 C         138.7448  139.8943  165.8934 C.ar    1  UNL1        0.0721
      5 C         138.1626  140.5993  164.7042 C.ar    1  UNL1        0.0208
      6 C         138.9624  141.6463  163.9873 C.ar    1  UNL1        0.0721
      7 C         140.3444  141.9883  164.4596 C.ar    1  UNL1        0.0472
      8 C         137.9450  138.8472  166.6103 C.1     1  UNL1        0.1005
      9 N         137.1452  137.8001  167.3272 N.1     1  UNL1       -0.1908
     10 C         138.3802  142.3513  162.7982 C.1     1  UNL1        0.1005
     11 N         137.7980  143.0563  161.6091 N.1     1  UNL1       -0.1908
     12 C         144.3222  142.5179  164.6062 C.2     1  UNL1        0.1032
     13 N         145.3820  141.8729  163.7632 N.2     1  UNL1       -0.1533
     14 N         145.1977  140.3864  163.8441 N.2     1  UNL1       -0.1533
     15 C         144.0240  140.1128  164.7372 C.2     1  UNL1        0.1032
     16 C         143.4829  141.4301  165.2082 C.3     1  UNL1        0.2405
     17 C         143.1494  144.7469  163.9691 C.3     1  UNL1        0.0065
     18 C         144.1347  143.9919  164.8113 C.3     1  UNL1        0.0472
     19 C         143.4859  138.7595  165.0962 C.3     1  UNL1        0.0472
     20 C         143.5461  138.2809  166.5166 C.3     1  UNL1        0.0065
@<TRIPOS>BOND
     1    17    18    1
     2    18    12    1
     3    12    13    2
     4    13    14    1
     5    14    15    2
     6    15    19    1
     7    19    20    1
     8    15    16    1
     9    16     1    1
    10     1     2    1
    11     2     3   ar
    12     3     4   ar
    13     4     8    1
    14     8     9    3
    15     4     5   ar
    16     5     6   ar
    17     6    10    1
    18    10    11    3
    19     6     7   ar
    20    16    12    1
    21     7     2   ar
@<TRIPOS>MOLECULE
*****
 20 21 0 0 0
SMALL
GASTEIGER

@<TRIPOS>ATOM
      1 O         142.3157  141.6177  166.1158 O.3     1  UNL1       -0.4676
      2 C         140.9328  141.2769  165.6450 C.ar    1  UNL1        0.1408
      3 C         140.3494  141.9836  164.4575 C.ar    1  UNL1        0.0472
      4 C         138.9666  141.6427  163.9868 C.ar    1  UNL1        0.0721
      5 C         138.1672  140.5952  164.7035 C.ar    1  UNL1        0.0208
      6 C         138.7506  139.8885  165.8910 C.ar    1  UNL1        0.0721
      7 C         140.1334  140.2294  166.3618 C.ar    1  UNL1        0.0472
      8 C         138.3831  142.3494  162.7992 C.1     1  UNL1        0.1005
      9 N         137.7996  143.0560  161.6117 N.1     1  UNL1       -0.1908
     10 C         137.9513  138.8410  166.6078 C.1     1  UNL1        0.1005
     11 N         137.1519  137.7935  167.3245 N.1     1  UNL1       -0.1908
     12 C         144.0182  140.0778  164.7464 C.2     1  UNL1        0.1032
     13 N         145.1983  140.3329  163.8563 N.2     1  UNL1       -0.1533
     14 N         145.4002  141.8167  163.7682 N.2     1  UNL1       -0.1533
     15 C         144.3450  142.4785  164.6039 C.2     1  UNL1        0.1032
     16 C         143.4908  141.4039  165.2085 C.3     1  UNL1        0.2405
     17 C         143.5971  138.2211  166.5142 C.3     1  UNL1        0.0065
     18 C         143.4630  138.7328  165.1106 C.3     1  UNL1        0.0472
     19 C         144.1739  143.9557  164.8005 C.3     1  UNL1        0.0472
     20 C         143.1352  144.7015  164.0163 C.3     1  UNL1        0.0065
@<TRIPOS>BOND
     1    17    18    1
     2    18    12    1
     3    12    13    2
     4    13    14    1
     5    14    15    2
     6    15    19    1
     7    19    20    1
     8    15    16    1
     9    16     1    1
    10     1     2    1
    11     2     3   ar
    12     3     4   ar
    13     4     8    1
    14     8     9    3
    15     4     5   ar
    16     5     6   ar
    17     6    10    1
    18    10    11    3
    19     6     7   ar
    20    16    12    1
    21     7     2   ar
@<TRIPOS>MOLECULE
*****
 20 21 0 0 0
SMALL
GASTEIGER

@<TRIPOS>ATOM
      1 O         141.2567  140.9479  165.1047 O.3     1  UNL1       -0.4676
      2 C         141.3682  141.0253  166.5986 C.ar    1  UNL1        0.1408
      3 C         140.8860  142.2462  167.3244 C.ar    1  UNL1        0.0472
      4 C         140.9975  142.3235  168.8182 C.ar    1  UNL1        0.0721
      5 C         141.5912  141.1800  169.5862 C.ar    1  UNL1        0.0208
      6 C         142.0734  139.9591  168.8604 C.ar    1  UNL1        0.0721
      7 C         141.9619  139.8817  167.3666 C.ar    1  UNL1        0.0472
      8 C         140.5153  143.5445  169.5441 C.1     1  UNL1        0.1005
      9 N         140.0331  144.7653  170.2700 N.1     1  UNL1       -0.1908
     10 C         142.6671  138.8155  169.6284 C.1     1  UNL1        0.1005
     11 N         143.2607  137.6720  170.3964 N.1     1  UNL1       -0.1908
     12 C         139.7962  138.8239  164.3973 C.2     1  UNL1        0.1032
     13 N         140.0590  137.5659  163.6238 N.2     1  UNL1       -0.1533
     14 N         141.4927  137.5840  163.1829 N.2     1  UNL1       -0.1533
     15 C         142.1158  138.8531  163.6840 C.2     1  UNL1        0.1032
     16 C         141.0673  139.6194  164.4346 C.3     1  UNL1        0.2405
     17 C         138.2396  138.9322  166.4747 C.3     1  UNL1        0.0065
     18 C         138.4912  139.2173  165.0237 C.3     1  UNL1        0.0472
     19 C         143.5378  139.2807  163.4718 C.3     1  UNL1        0.0472
     20 C         144.4883  139.3266  164.6314 C.3     1  UNL1        0.0065
@<TRIPOS>BOND
     1    17    18    1
     2    18    12    1
     3    12    13    2
     4    13    14    1
     5    14    15    2
     6    15    19    1
     7    19    20    1
     8    15    16    1
     9    16     1    1
    10     1     2    1
    11     2     3   ar
    12     3     4   ar
    13     4     8    1
    14     8     9    3
    15     4     5   ar
    16     5     6   ar
    17     6    10    1
    18    10    11    3
    19     6     7   ar
    20    16    12    1
    21     7     2   ar
@<TRIPOS>MOLECULE
*****
 20 21 0 0 0
SMALL
GASTEIGER

@<TRIPOS>ATOM
      1 O         141.2898  140.7365  165.7414 O.3     1  UNL1       -0.4676
      2 C         141.3243  140.6206  167.2366 C.ar    1  UNL1        0.1408
      3 C         142.1088  139.5191  167.8856 C.ar    1  UNL1        0.0472
      4 C         142.1432  139.4032  169.3806 C.ar    1  UNL1        0.0721
      5 C         141.3931  140.3888  170.2268 C.ar    1  UNL1        0.0208
      6 C         140.6085  141.4902  169.5778 C.ar    1  UNL1        0.0721
      7 C         140.5741  141.6061  168.0827 C.ar    1  UNL1        0.0472
      8 C         142.9278  138.3017  170.0297 C.1     1  UNL1        0.1005
      9 N         143.7124  137.2003  170.6787 N.1     1  UNL1       -0.1908
     10 C         139.8583  142.4758  170.4239 C.1     1  UNL1        0.1005
     11 N         139.1082  143.4614  171.2700 N.1     1  UNL1       -0.1908
     12 C         141.8357  138.7838  163.9996 C.2     1  UNL1        0.1032
     13 N         141.0458  137.6790  163.3628 N.2     1  UNL1       -0.1533
     14 N         139.6384  137.7608  163.8752 N.2     1  UNL1       -0.1533
     15 C         139.5585  138.9161  164.8285 C.2     1  UNL1        0.1032
     16 C         140.9165  139.5483  164.9054 C.3     1  UNL1        0.2405
     17 C         144.2475  139.0613  164.9249 C.3     1  UNL1        0.0065
     18 C         143.2896  139.0732  163.7706 C.3     1  UNL1        0.0472
     19 C         138.3353  139.3610  165.5741 C.3     1  UNL1        0.0472
     20 C         138.0569  138.8242  166.9468 C.3     1  UNL1        0.0065
@<TRIPOS>BOND
     1    17    18    1
     2    18    12    1
     3    12    13    2
     4    13    14    1
     5    14    15    2
     6    15    19    1
     7    19    20    1
     8    15    16    1
     9    16     1    1
    10     1     2    1
    11     2     3   ar
    12     3     4   ar
    13     4     8    1
    14     8     9    3
    15     4     5   ar
    16     5     6   ar
    17     6    10    1
    18    10    11    3
    19     6     7   ar
    20    16    12    1
    21     7     2   ar
@<TRIPOS>MOLECULE
*****
 20 21 0 0 0
SMALL
GASTEIGER

@<TRIPOS>ATOM
      1 O         141.3811  141.7554  164.4614 O.3     1  UNL1       -0.4676
      2 C         140.8243  141.3440  165.7922 C.ar    1  UNL1        0.1408
      3 C         141.3498  141.9687  167.0506 C.ar    1  UNL1        0.0472
      4 C         140.7930  141.5573  168.3812 C.ar    1  UNL1        0.0721
      5 C         139.7108  140.5211  168.4535 C.ar    1  UNL1        0.0208
      6 C         139.1854  139.8964  167.1951 C.ar    1  UNL1        0.0721
      7 C         139.7422  140.3078  165.8644 C.ar    1  UNL1        0.0472
      8 C         141.3185  142.1820  169.6397 C.1     1  UNL1        0.1005
      9 N         141.8438  142.8067  170.8982 N.1     1  UNL1       -0.1908
     10 C         138.1032  138.8602  167.2673 C.1     1  UNL1        0.1005
     11 N         137.0210  137.8240  167.3396 N.1     1  UNL1       -0.1908
     12 C         143.5171  143.3583  164.3463 C.2     1  UNL1        0.1032
     13 N         143.7295  144.8299  164.1480 N.2     1  UNL1       -0.1533
     14 N         142.3848  145.4744  163.9850 N.2     1  UNL1       -0.1533
     15 C         141.3415  144.4011  164.0826 C.2     1  UNL1        0.1032
     16 C         142.0413  143.0933  164.3059 C.3     1  UNL1        0.2405
     17 C         145.4538  141.9102  163.3964 C.3     1  UNL1        0.0065
     18 C         144.5920  142.3319  164.5494 C.3     1  UNL1        0.0472
     19 C         139.8587  144.6007  163.9756 C.3     1  UNL1        0.0472
     20 C         139.0000  144.5159  165.2027 C.3     1  UNL1        0.0065
@<TRIPOS>BOND
     1    17    18    1
     2    18    12    1
     3    12    13    2
     4    13    14    1
     5    14    15    2
     6    15    19    1
     7    19    20    1
     8    15    16    1
     9    16     1    1
    10     1     2    1
    11     2     3   ar
    12     3     4   ar
    13     4     8    1
    14     8     9    3
    15     4     5   ar
    16     5     6   ar
    17     6    10    1
    18    10    11    3
    19     6     7   ar
    20    16    12    1
    21     7     2   ar
@<TRIPOS>MOLECULE
*****
 20 21 0 0 0
SMALL
GASTEIGER

@<TRIPOS>ATOM
      1 O         140.6389  141.9651  163.9449 O.3     1  UNL1       -0.4676
      2 C         140.2994  141.5206  165.3367 C.ar    1  UNL1        0.1408
      3 C         140.9219  142.2072  166.5161 C.ar    1  UNL1        0.0472
      4 C         140.5823  141.7627  167.9079 C.ar    1  UNL1        0.0721
      5 C         139.6203  140.6315  168.1203 C.ar    1  UNL1        0.0208
      6 C         138.9978  139.9449  166.9409 C.ar    1  UNL1        0.0721
      7 C         139.3373  140.3895  165.5491 C.ar    1  UNL1        0.0472
      8 C         141.2049  142.4492  169.0874 C.1     1  UNL1        0.1005
      9 N         141.8273  143.1358  170.2668 N.1     1  UNL1       -0.1908
     10 C         138.0358  138.8138  167.1532 C.1     1  UNL1        0.1005
     11 N         137.0738  137.6827  167.3656 N.1     1  UNL1       -0.1908
     12 C         138.9649  142.0670  161.8634 C.2     1  UNL1        0.1032
     13 N         137.9850  143.0742  161.3386 N.2     1  UNL1       -0.1533
     14 N         138.0139  144.2666  162.2484 N.2     1  UNL1       -0.1533
     15 C         139.0116  143.9962  163.3354 C.2     1  UNL1        0.1032
     16 C         139.5993  142.6368  163.0975 C.3     1  UNL1        0.2405
     17 C         138.7972  139.4758  161.9494 C.3     1  UNL1        0.0065
     18 C         139.2587  140.7255  161.2601 C.3     1  UNL1        0.0472
     19 C         139.3602  144.9225  164.4625 C.3     1  UNL1        0.0472
     20 C         138.5051  144.9603  165.6943 C.3     1  UNL1        0.0065
@<TRIPOS>BOND
     1    17    18    1
     2    18    12    1
     3    12    13    2
     4    13    14    1
     5    14    15    2
     6    15    19    1
     7    19    20    1
     8    15    16    1
     9    16     1    1
    10     1     2    1
    11     2     3   ar
    12     3     4   ar
    13     4     8    1
    14     8     9    3
    15     4     5   ar
    16     5     6   ar
    17     6    10    1
    18    10    11    3
    19     6     7   ar
    20    16    12    1
    21     7     2   ar
