@<TRIPOS>MOLECULE
*****
 39 42 0 0 0
SMALL
GASTEIGER

@<TRIPOS>ATOM
      1 N         135.1851  140.0923  155.8182 N.3     1  UNL1       -0.2725
      2 C         136.1380  141.0744  156.4324 C.3     1  UNL1        0.0738
      3 C         137.5064  140.7976  155.8841 C.3     1  UNL1        0.0383
      4 C         137.3993  139.6444  154.9309 C.3     1  UNL1        0.0889
      5 C         135.9647  139.2085  154.8902 C.3     1  UNL1        0.0919
      6 C         130.7639  139.8414  156.6185 C.3     1  UNL1        0.1085
      7 O         129.5031  140.6101  156.3552 O.3     1  UNL1       -0.3826
      8 C         131.6785  138.7612  157.1153 C.3     1  UNL1        0.0326
      9 C         133.1523  138.8449  156.8485 C.3     1  UNL1        0.0187
     10 C         133.7114  140.0086  156.0850 C.3     1  UNL1        0.0577
     11 C         132.7968  141.0888  155.5882 C.3     1  UNL1        0.0187
     12 C         131.3231  141.0051  155.8550 C.3     1  UNL1        0.0326
     13 H         128.7496  140.1379  156.7428 H       1  UNL1        0.2107
     14 C         126.7759  136.2541  159.3068 C.3     1  UNL1        0.0521
     15 C         127.7729  137.1509  158.6347 C.ar    1  UNL1        0.0594
     16 C         128.2385  136.8442  157.2422 C.ar    1  UNL1        0.0145
     17 C         129.2355  137.7411  156.5701 C.ar    1  UNL1        0.0007
     18 C         129.7669  138.9446  157.2906 C.ar    1  UNL1        0.0209
     19 C         129.3014  139.2512  158.6831 C.ar    1  UNL1        0.0964
     20 N         128.3044  138.3544  159.3552 N.ar    1  UNL1       -0.2484
     21 N         138.5285  139.0342  154.1548 N.am    1  UNL1       -0.3032
     22 C         139.0457  137.6759  154.5256 C.2     1  UNL1        0.2425
     23 O         138.4335  136.9277  155.6726 O.2     1  UNL1       -0.2733
     24 H         138.9303  139.5253  153.4020 H       1  UNL1        0.1495
     25 C         140.1750  137.0657  153.7494 C.3     1  UNL1        0.1759
     26 N         140.6890  135.7053  154.1172 N.am    1  UNL1       -0.2931
     27 C         141.5308  135.5287  155.3461 C.2     1  UNL1        0.2462
     28 O         141.8586  136.7123  156.2072 O.2     1  UNL1       -0.2701
     29 H         140.4738  134.9284  153.5521 H       1  UNL1        0.1502
     30 C         142.0447  134.1683  155.7139 C.ar    1  UNL1        0.0533
     31 C         141.3290  132.9409  155.2329 C.ar    1  UNL1        0.0045
     32 C         141.8430  131.5806  155.6007 C.ar    1  UNL1        0.0001
     33 C         143.0727  131.4475  156.4495 C.ar    1  UNL1        0.0039
     34 C         143.7883  132.6750  156.9304 C.ar    1  UNL1        0.0716
     35 C         143.2743  134.0353  156.5626 C.ar    1  UNL1        0.0084
     36 C         145.0179  132.5420  157.7792 C.3     1  UNL1        0.4186
     37 F         146.2475  132.4091  158.6279 F       1  UNL1       -0.1659
     38 F         144.4904  133.5947  158.7084 F       1  UNL1       -0.1659
     39 F         145.5456  131.4893  156.8499 F       1  UNL1       -0.1659
@<TRIPOS>BOND
     1    14    15    1
     2    15    16   ar
     3    16    17   ar
     4    17    18   ar
     5    18     6    1
     6     6     7    1
     7     6     8    1
     8     8     9    1
     9     9    10    1
    10    10     1    1
    11     1     2    1
    12     2     3    1
    13     3     4    1
    14     4    21    1
    15    21    22   am
    16    22    23    2
    17    22    25    1
    18    25    26    1
    19    26    27   am
    20    27    28    2
    21    27    30    1
    22    30    31   ar
    23    31    32   ar
    24    32    33   ar
    25    33    34   ar
    26    34    36    1
    27    36    37    1
    28    36    38    1
    29    36    39    1
    30    34    35   ar
    31     4     5    1
    32    10    11    1
    33    11    12    1
    34    18    19   ar
    35    19    20   ar
    36    20    15   ar
    37    12     6    1
    38     5     1    1
    39    35    30   ar
    40     7    13    1
    41    21    24    1
    42    26    29    1
@<TRIPOS>MOLECULE
*****
 39 42 0 0 0
SMALL
GASTEIGER

@<TRIPOS>ATOM
      1 N         138.8658  139.6350  162.7238 N.3     1  UNL1       -0.2725
      2 C         137.6585  140.1336  161.9865 C.3     1  UNL1        0.0738
      3 C         137.7948  139.7312  160.5480 C.3     1  UNL1        0.0383
      4 C         139.0865  138.9838  160.3962 C.3     1  UNL1        0.0889
      5 C         139.7484  138.9244  161.7408 C.3     1  UNL1        0.0919
      6 C         139.6948  140.1757  167.1136 C.3     1  UNL1        0.1085
      7 O         139.2122  139.6784  168.4439 O.3     1  UNL1       -0.3826
      8 C         140.4920  140.9417  166.0999 C.3     1  UNL1        0.0326
      9 C         140.2157  140.7615  164.6366 C.3     1  UNL1        0.0187
     10 C         139.1422  139.8153  164.1870 C.3     1  UNL1        0.0577
     11 C         138.3449  139.0493  165.2007 C.3     1  UNL1        0.0187
     12 C         138.6212  139.2295  166.6640 C.3     1  UNL1        0.0326
     13 H         139.7209  140.1035  169.1520 H       1  UNL1        0.2107
     14 C         143.3186  143.2697  170.7598 C.3     1  UNL1        0.0521
     15 C         142.4127  142.4962  169.8483 C.ar    1  UNL1        0.0594
     16 C         142.7663  141.0930  169.4533 C.ar    1  UNL1        0.0145
     17 C         141.8603  140.3196  168.5417 C.ar    1  UNL1        0.0007
     18 C         140.6007  140.9492  168.0251 C.ar    1  UNL1        0.0209
     19 C         140.2471  142.3523  168.4202 C.ar    1  UNL1        0.0964
     20 N         141.1530  143.1258  169.3317 N.ar    1  UNL1       -0.2484
     21 N         139.6221  138.3987  159.1232 N.am    1  UNL1       -0.3032
     22 C         140.8529  138.9781  158.4910 C.2     1  UNL1        0.2425
     23 O         141.5479  140.1427  159.1318 O.2     1  UNL1       -0.2733
     24 H         139.1660  137.6343  158.7025 H       1  UNL1        0.1495
     25 C         141.3886  138.3930  157.2179 C.3     1  UNL1        0.1759
     26 N         141.3418  136.9102  156.9960 N.am    1  UNL1       -0.2931
     27 C         142.5699  136.1814  156.5372 C.2     1  UNL1        0.2462
     28 O         143.8449  136.9354  156.3002 O.2     1  UNL1       -0.2701
     29 H         140.5050  136.4153  157.1515 H       1  UNL1        0.1502
     30 C         142.5232  134.6987  156.3153 C.ar    1  UNL1        0.0533
     31 C         141.5441  134.1169  155.3391 C.ar    1  UNL1        0.0045
     32 C         141.4974  132.6342  155.1172 C.ar    1  UNL1        0.0001
     33 C         142.4296  131.7331  155.8716 C.ar    1  UNL1        0.0039
     34 C         143.4086  132.3149  156.8478 C.ar    1  UNL1        0.0716
     35 C         143.4554  133.7976  157.0697 C.ar    1  UNL1        0.0084
     36 C         144.3409  131.4138  157.6022 C.3     1  UNL1        0.4186
     37 F         145.2731  130.5129  158.3566 F       1  UNL1       -0.1659
     38 F         143.2156  130.4520  157.8440 F       1  UNL1       -0.1659
     39 F         145.4662  132.3757  157.3604 F       1  UNL1       -0.1659
@<TRIPOS>BOND
     1    14    15    1
     2    15    16   ar
     3    16    17   ar
     4    17    18   ar
     5    18     6    1
     6     6     7    1
     7     6     8    1
     8     8     9    1
     9     9    10    1
    10    10     1    1
    11     1     2    1
    12     2     3    1
    13     3     4    1
    14     4    21    1
    15    21    22   am
    16    22    23    2
    17    22    25    1
    18    25    26    1
    19    26    27   am
    20    27    28    2
    21    27    30    1
    22    30    31   ar
    23    31    32   ar
    24    32    33   ar
    25    33    34   ar
    26    34    36    1
    27    36    37    1
    28    36    38    1
    29    36    39    1
    30    34    35   ar
    31     4     5    1
    32    10    11    1
    33    11    12    1
    34    18    19   ar
    35    19    20   ar
    36    20    15   ar
    37    12     6    1
    38     5     1    1
    39    35    30   ar
    40     7    13    1
    41    21    24    1
    42    26    29    1
@<TRIPOS>MOLECULE
*****
 39 42 0 0 0
SMALL
GASTEIGER

@<TRIPOS>ATOM
      1 N         139.4073  140.0021  160.8743 N.3     1  UNL1       -0.2725
      2 C         140.5174  139.6228  159.9396 C.3     1  UNL1        0.0738
      3 C         139.9902  139.7012  158.5376 C.3     1  UNL1        0.0383
      4 C         138.5540  140.1288  158.6057 C.3     1  UNL1        0.0889
      5 C         138.1938  140.3148  160.0498 C.3     1  UNL1        0.0919
      6 C         139.6703  140.1719  165.3634 C.3     1  UNL1        0.1085
      7 O         138.8577  139.8265  166.5759 O.3     1  UNL1       -0.3826
      8 C         140.8119  140.6673  164.5260 C.3     1  UNL1        0.0326
      9 C         140.7243  140.6107  163.0296 C.3     1  UNL1        0.0187
     10 C         139.4950  140.0587  162.3706 C.3     1  UNL1        0.0577
     11 C         138.3534  139.5632  163.2080 C.3     1  UNL1        0.0187
     12 C         138.4411  139.6198  164.7045 C.3     1  UNL1        0.0326
     13 H         139.3561  140.0567  167.3756 H       1  UNL1        0.2107
     14 C         143.4584  141.9002  169.6835 C.3     1  UNL1        0.0521
     15 C         142.5114  141.4681  168.6035 C.ar    1  UNL1        0.0594
     16 C         142.5951  140.0788  168.0442 C.ar    1  UNL1        0.0145
     17 C         141.6481  139.6467  166.9642 C.ar    1  UNL1        0.0007
     18 C         140.6173  140.6039  166.4434 C.ar    1  UNL1        0.0209
     19 C         140.5336  141.9932  167.0027 C.ar    1  UNL1        0.0964
     20 N         141.4806  142.4253  168.0827 N.ar    1  UNL1       -0.2484
     21 N         137.6389  140.3344  157.4352 N.am    1  UNL1       -0.3032
     22 C         137.5413  141.6838  156.7874 C.2     1  UNL1        0.2425
     23 O         138.3588  142.8276  157.3102 O.2     1  UNL1       -0.2733
     24 H         137.1023  139.5837  157.0921 H       1  UNL1        0.1495
     25 C         136.6261  141.8894  155.6168 C.3     1  UNL1        0.1759
     26 N         135.1393  141.8480  155.8109 N.am    1  UNL1       -0.2931
     27 C         134.4220  140.5308  155.8317 C.2     1  UNL1        0.2462
     28 O         135.1916  139.2549  155.6585 O.2     1  UNL1       -0.2701
     29 H         134.6342  142.6854  155.9245 H       1  UNL1        0.1502
     30 C         132.9352  140.4894  156.0258 C.ar    1  UNL1        0.0533
     31 C         132.0545  141.4472  155.2794 C.ar    1  UNL1        0.0045
     32 C         130.5677  141.4058  155.4735 C.ar    1  UNL1        0.0001
     33 C         129.9615  140.4067  156.4138 C.ar    1  UNL1        0.0039
     34 C         130.8422  139.4489  157.1602 C.ar    1  UNL1        0.0716
     35 C         132.3291  139.4903  156.9661 C.ar    1  UNL1        0.0084
     36 C         130.2361  138.4497  158.1006 C.3     1  UNL1        0.4186
     37 F         129.6300  137.4506  159.0409 F       1  UNL1       -0.1659
     38 F         128.8802  138.7287  157.5231 F       1  UNL1       -0.1659
     39 F         131.5921  138.1707  158.6781 F       1  UNL1       -0.1659
@<TRIPOS>BOND
     1    14    15    1
     2    15    16   ar
     3    16    17   ar
     4    17    18   ar
     5    18     6    1
     6     6     7    1
     7     6     8    1
     8     8     9    1
     9     9    10    1
    10    10     1    1
    11     1     2    1
    12     2     3    1
    13     3     4    1
    14     4    21    1
    15    21    22   am
    16    22    23    2
    17    22    25    1
    18    25    26    1
    19    26    27   am
    20    27    28    2
    21    27    30    1
    22    30    31   ar
    23    31    32   ar
    24    32    33   ar
    25    33    34   ar
    26    34    36    1
    27    36    37    1
    28    36    38    1
    29    36    39    1
    30    34    35   ar
    31     4     5    1
    32    10    11    1
    33    11    12    1
    34    18    19   ar
    35    19    20   ar
    36    20    15   ar
    37    12     6    1
    38     5     1    1
    39    35    30   ar
    40     7    13    1
    41    21    24    1
    42    26    29    1
@<TRIPOS>MOLECULE
*****
 39 42 0 0 0
SMALL
GASTEIGER

@<TRIPOS>ATOM
      1 N         143.5967  140.3504  161.2627 N.3     1  UNL1       -0.2725
      2 C         143.9859  141.6916  160.7152 C.3     1  UNL1        0.0738
      3 C         144.1218  141.5632  159.2270 C.3     1  UNL1        0.0383
      4 C         143.8165  140.1425  158.8545 C.3     1  UNL1        0.0889
      5 C         143.4920  139.3930  160.1126 C.3     1  UNL1        0.0919
      6 C         142.8708  139.3705  165.5942 C.3     1  UNL1        0.1085
      7 O         143.5017  138.6075  166.7211 O.3     1  UNL1       -0.3826
      8 C         141.8920  140.2246  164.8443 C.3     1  UNL1        0.0326
      9 C         142.1340  140.5512  163.4004 C.3     1  UNL1        0.0187
     10 C         143.3547  140.0238  162.7065 C.3     1  UNL1        0.0577
     11 C         144.3335  139.1697  163.4565 C.3     1  UNL1        0.0187
     12 C         144.0915  138.8431  164.9004 C.3     1  UNL1        0.0326
     13 H         142.9498  138.6876  167.5148 H       1  UNL1        0.2107
     14 C         138.8642  140.4203  169.9353 C.3     1  UNL1        0.0521
     15 C         139.8658  140.1579  168.8500 C.ar    1  UNL1        0.0594
     16 C         139.4002  139.8640  167.4548 C.ar    1  UNL1        0.0145
     17 C         140.4019  139.6015  166.3695 C.ar    1  UNL1        0.0007
     18 C         141.8692  139.6329  166.6795 C.ar    1  UNL1        0.0209
     19 C         142.3347  139.9269  168.0748 C.ar    1  UNL1        0.0964
     20 N         141.3331  140.1893  169.1600 N.ar    1  UNL1       -0.2484
     21 N         143.8329  139.5717  157.4675 N.am    1  UNL1       -0.3032
     22 C         142.6163  139.6812  156.5970 C.2     1  UNL1        0.2425
     23 O         141.3832  140.3616  157.1135 O.2     1  UNL1       -0.2733
     24 H         144.6422  139.1252  157.1285 H       1  UNL1        0.1495
     25 C         142.6326  139.1104  155.2099 C.3     1  UNL1        0.1759
     26 N         142.3679  137.6494  154.9970 N.am    1  UNL1       -0.2931
     27 C         143.4654  136.6495  155.2102 C.2     1  UNL1        0.2462
     28 O         144.8277  137.1104  155.6364 O.2     1  UNL1       -0.2701
     29 H         141.4738  137.3468  154.7172 H       1  UNL1        0.1502
     30 C         143.2006  135.1884  154.9972 C.ar    1  UNL1        0.0533
     31 C         142.3779  134.7382  153.8266 C.ar    1  UNL1        0.0045
     32 C         142.1132  133.2772  153.6136 C.ar    1  UNL1        0.0001
     33 C         142.6711  132.2664  154.5712 C.ar    1  UNL1        0.0039
     34 C         143.4938  132.7167  155.7419 C.ar    1  UNL1        0.0716
     35 C         143.7585  134.1777  155.9548 C.ar    1  UNL1        0.0084
     36 C         144.0517  131.7059  156.6996 C.3     1  UNL1        0.4186
     37 F         144.6096  130.6952  157.6573 F       1  UNL1       -0.1659
     38 F         145.4440  132.0993  156.3037 F       1  UNL1       -0.1659
     39 F         142.6594  131.3125  157.0955 F       1  UNL1       -0.1659
@<TRIPOS>BOND
     1    14    15    1
     2    15    16   ar
     3    16    17   ar
     4    17    18   ar
     5    18     6    1
     6     6     7    1
     7     6     8    1
     8     8     9    1
     9     9    10    1
    10    10     1    1
    11     1     2    1
    12     2     3    1
    13     3     4    1
    14     4    21    1
    15    21    22   am
    16    22    23    2
    17    22    25    1
    18    25    26    1
    19    26    27   am
    20    27    28    2
    21    27    30    1
    22    30    31   ar
    23    31    32   ar
    24    32    33   ar
    25    33    34   ar
    26    34    36    1
    27    36    37    1
    28    36    38    1
    29    36    39    1
    30    34    35   ar
    31     4     5    1
    32    10    11    1
    33    11    12    1
    34    18    19   ar
    35    19    20   ar
    36    20    15   ar
    37    12     6    1
    38     5     1    1
    39    35    30   ar
    40     7    13    1
    41    21    24    1
    42    26    29    1
@<TRIPOS>MOLECULE
*****
 39 42 0 0 0
SMALL
GASTEIGER

@<TRIPOS>ATOM
      1 N         139.6696  139.3327  160.9900 N.3     1  UNL1       -0.2725
      2 C         138.9213  140.1454  159.9754 C.3     1  UNL1        0.0738
      3 C         139.3576  139.6998  158.6112 C.3     1  UNL1        0.0383
      4 C         140.3758  138.6117  158.7827 C.3     1  UNL1        0.0889
      5 C         140.5686  138.3848  160.2527 C.3     1  UNL1        0.0919
      6 C         139.2855  139.6772  165.4603 C.3     1  UNL1        0.1085
      7 O         138.7282  138.9177  166.6276 O.3     1  UNL1       -0.3826
      8 C         139.9682  140.7615  164.6804 C.3     1  UNL1        0.0326
      9 C         140.0962  140.6467  163.1903 C.3     1  UNL1        0.0187
     10 C         139.5416  139.4476  162.4800 C.3     1  UNL1        0.0577
     11 C         138.8589  138.3633  163.2599 C.3     1  UNL1        0.0187
     12 C         138.7308  138.4781  164.7500 C.3     1  UNL1        0.0326
     13 H         138.8916  139.4148  167.4444 H       1  UNL1        0.2107
     14 C         140.7299  143.4187  169.9229 C.3     1  UNL1        0.0521
     15 C         140.3688  142.4833  168.8072 C.ar    1  UNL1        0.0594
     16 C         139.9709  141.0697  169.1128 C.ar    1  UNL1        0.0145
     17 C         139.6098  140.1343  167.9971 C.ar    1  UNL1        0.0007
     18 C         139.6466  140.6125  166.5759 C.ar    1  UNL1        0.0209
     19 C         140.0444  142.0261  166.2703 C.ar    1  UNL1        0.0964
     20 N         140.4055  142.9615  167.3860 N.ar    1  UNL1       -0.2484
     21 N         141.0778  137.8791  157.6779 N.am    1  UNL1       -0.3032
     22 C         142.5627  138.0140  157.5137 C.2     1  UNL1        0.2425
     23 O         143.3455  138.8815  158.4543 O.2     1  UNL1       -0.2733
     24 H         140.5640  137.3097  157.0606 H       1  UNL1        0.1495
     25 C         143.2647  137.2814  156.4090 C.3     1  UNL1        0.1759
     26 N         143.3464  135.7839  156.4355 N.am    1  UNL1       -0.2931
     27 C         142.1856  134.9610  155.9610 C.2     1  UNL1        0.2462
     28 O         140.9431  135.6355  155.4598 O.2     1  UNL1       -0.2701
     29 H         144.1619  135.3412  156.7645 H       1  UNL1        0.1502
     30 C         142.2673  133.4634  155.9876 C.ar    1  UNL1        0.0533
     31 C         141.3493  132.6469  155.1270 C.ar    1  UNL1        0.0045
     32 C         141.4310  131.1493  155.1536 C.ar    1  UNL1        0.0001
     33 C         142.4306  130.4683  156.0407 C.ar    1  UNL1        0.0039
     34 C         143.3486  131.2849  156.9013 C.ar    1  UNL1        0.0716
     35 C         143.2669  132.7824  156.8747 C.ar    1  UNL1        0.0084
     36 C         144.3482  130.6039  157.7884 C.3     1  UNL1        0.4186
     37 F         145.3478  129.9229  158.6755 F       1  UNL1       -0.1659
     38 F         143.2986  129.6220  158.2175 F       1  UNL1       -0.1659
     39 F         145.3979  131.5858  157.3593 F       1  UNL1       -0.1659
@<TRIPOS>BOND
     1    14    15    1
     2    15    16   ar
     3    16    17   ar
     4    17    18   ar
     5    18     6    1
     6     6     7    1
     7     6     8    1
     8     8     9    1
     9     9    10    1
    10    10     1    1
    11     1     2    1
    12     2     3    1
    13     3     4    1
    14     4    21    1
    15    21    22   am
    16    22    23    2
    17    22    25    1
    18    25    26    1
    19    26    27   am
    20    27    28    2
    21    27    30    1
    22    30    31   ar
    23    31    32   ar
    24    32    33   ar
    25    33    34   ar
    26    34    36    1
    27    36    37    1
    28    36    38    1
    29    36    39    1
    30    34    35   ar
    31     4     5    1
    32    10    11    1
    33    11    12    1
    34    18    19   ar
    35    19    20   ar
    36    20    15   ar
    37    12     6    1
    38     5     1    1
    39    35    30   ar
    40     7    13    1
    41    21    24    1
    42    26    29    1
@<TRIPOS>MOLECULE
*****
 39 42 0 0 0
SMALL
GASTEIGER

@<TRIPOS>ATOM
      1 N         138.6711  139.1060  163.4922 N.3     1  UNL1       -0.2725
      2 C         139.0291  137.8196  162.8088 C.3     1  UNL1        0.0738
      3 C         138.5089  137.8809  161.4033 C.3     1  UNL1        0.0383
      4 C         137.8293  139.2052  161.2179 C.3     1  UNL1        0.0889
      5 C         137.9295  139.9623  162.5089 C.3     1  UNL1        0.0919
      6 C         139.6494  140.2036  167.7451 C.3     1  UNL1        0.1085
      7 O         139.1794  139.9225  169.1416 O.3     1  UNL1       -0.3826
      8 C         140.4562  140.7770  166.6181 C.3     1  UNL1        0.0326
      9 C         140.1301  140.4111  165.2004 C.3     1  UNL1        0.0187
     10 C         138.9973  139.4719  164.9098 C.3     1  UNL1        0.0577
     11 C         138.1905  138.8985  166.0369 C.3     1  UNL1        0.0187
     12 C         138.5166  139.2644  167.4546 C.3     1  UNL1        0.0326
     13 H         139.7290  140.4132  169.7726 H       1  UNL1        0.2107
     14 C         143.5279  143.5702  170.8473 C.3     1  UNL1        0.0521
     15 C         142.5583  142.7286  170.0718 C.ar    1  UNL1        0.0594
     16 C         141.0883  143.0177  170.1452 C.ar    1  UNL1        0.0145
     17 C         140.1187  142.1761  169.3697 C.ar    1  UNL1        0.0007
     18 C         140.6191  141.0453  168.5207 C.ar    1  UNL1        0.0209
     19 C         142.0891  140.7561  168.4472 C.ar    1  UNL1        0.0964
     20 N         143.0587  141.5978  169.2228 N.ar    1  UNL1       -0.2484
     21 N         137.1660  139.6876  159.9621 N.am    1  UNL1       -0.3032
     22 C         137.9905  140.2827  158.8594 C.2     1  UNL1        0.2425
     23 O         139.4784  140.3954  159.0125 O.2     1  UNL1       -0.2733
     24 H         136.1894  139.6136  159.8615 H       1  UNL1        0.1495
     25 C         137.3272  140.7651  157.6034 C.3     1  UNL1        0.1759
     26 N         135.8304  140.8077  157.5145 N.am    1  UNL1       -0.2931
     27 C         135.1529  140.6407  156.1868 C.2     1  UNL1        0.2462
     28 O         135.9721  140.4310  154.9478 O.2     1  UNL1       -0.2701
     29 H         135.2927  140.9454  158.3277 H       1  UNL1        0.1502
     30 C         133.6561  140.6833  156.0979 C.ar    1  UNL1        0.0533
     31 C         132.9900  141.5596  155.0789 C.ar    1  UNL1        0.0045
     32 C         131.4933  141.6022  154.9900 C.ar    1  UNL1        0.0001
     33 C         130.6625  140.7686  155.9201 C.ar    1  UNL1        0.0039
     34 C         131.3287  139.8924  156.9391 C.ar    1  UNL1        0.0716
     35 C         132.8255  139.8498  157.0280 C.ar    1  UNL1        0.0084
     36 C         130.4981  139.0588  157.8693 C.3     1  UNL1        0.4186
     37 F         129.6675  138.2252  158.7995 F       1  UNL1       -0.1659
     38 F         131.4785  137.9316  157.7347 F       1  UNL1       -0.1659
     39 F         129.5176  140.1860  158.0040 F       1  UNL1       -0.1659
@<TRIPOS>BOND
     1    14    15    1
     2    15    16   ar
     3    16    17   ar
     4    17    18   ar
     5    18     6    1
     6     6     7    1
     7     6     8    1
     8     8     9    1
     9     9    10    1
    10    10     1    1
    11     1     2    1
    12     2     3    1
    13     3     4    1
    14     4    21    1
    15    21    22   am
    16    22    23    2
    17    22    25    1
    18    25    26    1
    19    26    27   am
    20    27    28    2
    21    27    30    1
    22    30    31   ar
    23    31    32   ar
    24    32    33   ar
    25    33    34   ar
    26    34    36    1
    27    36    37    1
    28    36    38    1
    29    36    39    1
    30    34    35   ar
    31     4     5    1
    32    10    11    1
    33    11    12    1
    34    18    19   ar
    35    19    20   ar
    36    20    15   ar
    37    12     6    1
    38     5     1    1
    39    35    30   ar
    40     7    13    1
    41    21    24    1
    42    26    29    1
@<TRIPOS>MOLECULE
*****
 39 42 0 0 0
SMALL
GASTEIGER

@<TRIPOS>ATOM
      1 N         142.7850  141.1607  158.2796 N.3     1  UNL1       -0.2725
      2 C         143.0742  142.5677  157.8477 C.3     1  UNL1        0.0738
      3 C         142.6183  143.4905  158.9388 C.3     1  UNL1        0.0383
      4 C         142.0474  142.6538  160.0452 C.3     1  UNL1        0.0889
      5 C         142.1504  141.2140  159.6378 C.3     1  UNL1        0.0919
      6 C         143.6664  137.4341  155.9163 C.3     1  UNL1        0.1085
      7 O         144.5455  136.9658  154.7947 O.3     1  UNL1       -0.3826
      8 C         142.6384  137.4041  157.0082 C.3     1  UNL1        0.0326
      9 C         142.3446  138.6463  157.7960 C.3     1  UNL1        0.0187
     10 C         143.0788  139.9185  157.4919 C.3     1  UNL1        0.0577
     11 C         144.1068  139.9485  156.4000 C.3     1  UNL1        0.0187
     12 C         144.4006  138.7063  155.6122 C.3     1  UNL1        0.0326
     13 H         144.3749  136.0269  154.6207 H       1  UNL1        0.2107
     14 C         141.9508  131.6948  155.5746 C.3     1  UNL1        0.0521
     15 C         142.3797  133.1296  155.6600 C.ar    1  UNL1        0.0594
     16 C         142.2684  134.0186  154.4570 C.ar    1  UNL1        0.0145
     17 C         142.6973  135.4534  154.5424 C.ar    1  UNL1        0.0007
     18 C         143.2375  135.9993  155.8309 C.ar    1  UNL1        0.0209
     19 C         143.3488  135.1103  157.0339 C.ar    1  UNL1        0.0964
     20 N         142.9199  133.6755  156.9485 N.ar    1  UNL1       -0.2484
     21 N         141.4742  143.1670  161.3328 N.am    1  UNL1       -0.3032
     22 C         140.1028  143.7743  161.3539 C.2     1  UNL1        0.2425
     23 O         139.3046  143.8685  160.0874 O.2     1  UNL1       -0.2733
     24 H         141.9980  143.1052  162.1641 H       1  UNL1        0.1495
     25 C         139.5295  144.2875  162.6415 C.3     1  UNL1        0.1759
     26 N         139.2461  143.3379  163.7676 N.am    1  UNL1       -0.2931
     27 C         140.3544  142.9063  164.6815 C.2     1  UNL1        0.2462
     28 O         141.7461  143.4242  164.4694 O.2     1  UNL1       -0.2701
     29 H         138.3327  142.9980  163.9068 H       1  UNL1        0.1502
     30 C         140.0711  141.9567  165.8075 C.ar    1  UNL1        0.0533
     31 C         140.4562  142.3210  167.2107 C.ar    1  UNL1        0.0045
     32 C         140.1729  141.3714  168.3368 C.ar    1  UNL1        0.0001
     33 C         139.5044  140.0574  168.0597 C.ar    1  UNL1        0.0039
     34 C         139.1194  139.6932  166.6565 C.ar    1  UNL1        0.0716
     35 C         139.4027  140.6428  165.5304 C.ar    1  UNL1        0.0084
     36 C         138.4509  138.3792  166.3793 C.3     1  UNL1        0.4186
     37 F         137.7825  137.0653  166.1021 F       1  UNL1       -0.1659
     38 F         137.3074  138.7738  167.2661 F       1  UNL1       -0.1659
     39 F         139.5945  137.9845  165.4924 F       1  UNL1       -0.1659
@<TRIPOS>BOND
     1    14    15    1
     2    15    16   ar
     3    16    17   ar
     4    17    18   ar
     5    18     6    1
     6     6     7    1
     7     6     8    1
     8     8     9    1
     9     9    10    1
    10    10     1    1
    11     1     2    1
    12     2     3    1
    13     3     4    1
    14     4    21    1
    15    21    22   am
    16    22    23    2
    17    22    25    1
    18    25    26    1
    19    26    27   am
    20    27    28    2
    21    27    30    1
    22    30    31   ar
    23    31    32   ar
    24    32    33   ar
    25    33    34   ar
    26    34    36    1
    27    36    37    1
    28    36    38    1
    29    36    39    1
    30    34    35   ar
    31     4     5    1
    32    10    11    1
    33    11    12    1
    34    18    19   ar
    35    19    20   ar
    36    20    15   ar
    37    12     6    1
    38     5     1    1
    39    35    30   ar
    40     7    13    1
    41    21    24    1
    42    26    29    1
@<TRIPOS>MOLECULE
*****
 39 42 0 0 0
SMALL
GASTEIGER

@<TRIPOS>ATOM
      1 N         143.1700  139.5990  162.3748 N.3     1  UNL1       -0.2725
      2 C         143.9477  140.5774  161.5455 C.3     1  UNL1        0.0738
      3 C         143.8822  140.1283  160.1158 C.3     1  UNL1        0.0383
      4 C         143.0639  138.8723  160.0616 C.3     1  UNL1        0.0889
      5 C         142.6237  138.5452  161.4576 C.3     1  UNL1        0.0919
      6 C         142.5792  139.7911  166.8317 C.3     1  UNL1        0.1085
      7 O         143.0257  139.0915  168.0812 O.3     1  UNL1       -0.3826
      8 C         141.8728  140.7676  165.9388 C.3     1  UNL1        0.0326
      9 C         142.0697  140.7036  164.4531 C.3     1  UNL1        0.0187
     10 C         142.9730  139.6631  163.8604 C.3     1  UNL1        0.0577
     11 C         143.6794  138.6866  164.7534 C.3     1  UNL1        0.0187
     12 C         143.4825  138.7506  166.2390 C.3     1  UNL1        0.0326
     13 H         142.6107  139.5097  168.8518 H       1  UNL1        0.2107
     14 C         139.5862  142.9814  170.9382 C.3     1  UNL1        0.0521
     15 C         140.3344  142.1838  169.9116 C.ar    1  UNL1        0.0594
     16 C         139.7031  140.9685  169.2998 C.ar    1  UNL1        0.0145
     17 C         140.4513  140.1710  168.2731 C.ar    1  UNL1        0.0007
     18 C         141.8309  140.5886  167.8583 C.ar    1  UNL1        0.0209
     19 C         142.4623  141.8039  168.4702 C.ar    1  UNL1        0.0964
     20 N         141.7141  142.6015  169.4968 N.ar    1  UNL1       -0.2484
     21 N         142.7422  138.0822  158.8278 N.am    1  UNL1       -0.3032
     22 C         141.6970  138.5764  157.8720 C.2     1  UNL1        0.2425
     23 O         140.9735  139.8606  158.1501 O.2     1  UNL1       -0.2733
     24 H         143.2171  137.2394  158.6453 H       1  UNL1        0.1495
     25 C         141.3754  137.7862  156.6382 C.3     1  UNL1        0.1759
     26 N         141.4814  136.2901  156.6568 N.am    1  UNL1       -0.2931
     27 C         142.8140  135.6302  156.4602 C.2     1  UNL1        0.2462
     28 O         144.0406  136.4664  156.2450 O.2     1  UNL1       -0.2701
     29 H         140.6764  135.7413  156.7980 H       1  UNL1        0.1502
     30 C         142.9201  134.1341  156.4788 C.ar    1  UNL1        0.0533
     31 C         144.0017  133.4688  157.2773 C.ar    1  UNL1        0.0045
     32 C         144.1077  131.9726  157.2959 C.ar    1  UNL1        0.0001
     33 C         143.1322  131.1417  156.5160 C.ar    1  UNL1        0.0039
     34 C         142.0507  131.8071  155.7176 C.ar    1  UNL1        0.0716
     35 C         141.9446  133.3033  155.6990 C.ar    1  UNL1        0.0084
     36 C         141.0751  130.9763  154.9377 C.3     1  UNL1        0.4186
     37 F         140.0997  130.1455  154.1579 F       1  UNL1       -0.1659
     38 F         140.6526  132.1934  154.1696 F       1  UNL1       -0.1659
     39 F         141.4977  129.7591  155.7058 F       1  UNL1       -0.1659
@<TRIPOS>BOND
     1    14    15    1
     2    15    16   ar
     3    16    17   ar
     4    17    18   ar
     5    18     6    1
     6     6     7    1
     7     6     8    1
     8     8     9    1
     9     9    10    1
    10    10     1    1
    11     1     2    1
    12     2     3    1
    13     3     4    1
    14     4    21    1
    15    21    22   am
    16    22    23    2
    17    22    25    1
    18    25    26    1
    19    26    27   am
    20    27    28    2
    21    27    30    1
    22    30    31   ar
    23    31    32   ar
    24    32    33   ar
    25    33    34   ar
    26    34    36    1
    27    36    37    1
    28    36    38    1
    29    36    39    1
    30    34    35   ar
    31     4     5    1
    32    10    11    1
    33    11    12    1
    34    18    19   ar
    35    19    20   ar
    36    20    15   ar
    37    12     6    1
    38     5     1    1
    39    35    30   ar
    40     7    13    1
    41    21    24    1
    42    26    29    1
@<TRIPOS>MOLECULE
*****
 39 42 0 0 0
SMALL
GASTEIGER

@<TRIPOS>ATOM
      1 N         142.6816  139.9409  157.6728 N.3     1  UNL1       -0.2725
      2 C         141.8966  139.1149  156.6974 C.3     1  UNL1        0.0738
      3 C         140.7573  138.4805  157.4386 C.3     1  UNL1        0.0383
      4 C         140.8381  138.9143  158.8722 C.3     1  UNL1        0.0889
      5 C         142.0274  139.8168  159.0170 C.3     1  UNL1        0.0919
      6 C         146.3542  142.3652  156.7325 C.3     1  UNL1        0.1085
      7 O         147.2167  143.4289  157.3446 O.3     1  UNL1       -0.3826
      8 C         145.8436  141.3621  155.7410 C.3     1  UNL1        0.0326
      9 C         144.6193  140.5540  156.0544 C.3     1  UNL1        0.0187
     10 C         143.9058  140.7489  157.3593 C.3     1  UNL1        0.0577
     11 C         144.4164  141.7520  158.3508 C.3     1  UNL1        0.0187
     12 C         145.6406  142.5602  158.0373 C.3     1  UNL1        0.0326
     13 H         147.9371  143.6518  156.7344 H       1  UNL1        0.2107
     14 C         150.4066  143.0630  152.3632 C.3     1  UNL1        0.0521
     15 C         149.3935  142.8885  153.4555 C.ar    1  UNL1        0.0594
     16 C         149.6779  141.9634  154.6014 C.ar    1  UNL1        0.0145
     17 C         148.6648  141.7890  155.6937 C.ar    1  UNL1        0.0007
     18 C         147.3673  142.5397  155.6401 C.ar    1  UNL1        0.0209
     19 C         147.0829  143.4648  154.4942 C.ar    1  UNL1        0.0964
     20 N         148.0960  143.6392  153.4019 N.ar    1  UNL1       -0.2484
     21 N         139.8953  138.5155  159.9685 N.am    1  UNL1       -0.3032
     22 C         138.6564  139.3221  160.2225 C.2     1  UNL1        0.2425
     23 O         138.3603  140.5274  159.3802 O.2     1  UNL1       -0.2733
     24 H         140.0896  137.7245  160.5214 H       1  UNL1        0.1495
     25 C         137.7134  138.9234  161.3189 C.3     1  UNL1        0.1759
     26 N         137.9665  139.3747  162.7268 N.am    1  UNL1       -0.2931
     27 C         138.9668  138.6505  163.5782 C.2     1  UNL1        0.2462
     28 O         139.7142  137.4750  163.0217 O.2     1  UNL1       -0.2701
     29 H         137.4760  140.1462  163.0921 H       1  UNL1        0.1502
     30 C         139.2199  139.1018  164.9861 C.ar    1  UNL1        0.0533
     31 C         138.2006  138.8350  166.0538 C.ar    1  UNL1        0.0045
     32 C         138.4537  139.2863  167.4618 C.ar    1  UNL1        0.0001
     33 C         139.7259  140.0044  167.8021 C.ar    1  UNL1        0.0039
     34 C         140.7450  140.2713  166.7343 C.ar    1  UNL1        0.0716
     35 C         140.4920  139.8200  165.3264 C.ar    1  UNL1        0.0084
     36 C         142.0173  140.9894  167.0745 C.3     1  UNL1        0.4186
     37 F         143.2895  141.7076  167.4147 F       1  UNL1       -0.1659
     38 F         142.5511  139.7415  167.7130 F       1  UNL1       -0.1659
     39 F         141.4835  142.2375  166.4361 F       1  UNL1       -0.1659
@<TRIPOS>BOND
     1    14    15    1
     2    15    16   ar
     3    16    17   ar
     4    17    18   ar
     5    18     6    1
     6     6     7    1
     7     6     8    1
     8     8     9    1
     9     9    10    1
    10    10     1    1
    11     1     2    1
    12     2     3    1
    13     3     4    1
    14     4    21    1
    15    21    22   am
    16    22    23    2
    17    22    25    1
    18    25    26    1
    19    26    27   am
    20    27    28    2
    21    27    30    1
    22    30    31   ar
    23    31    32   ar
    24    32    33   ar
    25    33    34   ar
    26    34    36    1
    27    36    37    1
    28    36    38    1
    29    36    39    1
    30    34    35   ar
    31     4     5    1
    32    10    11    1
    33    11    12    1
    34    18    19   ar
    35    19    20   ar
    36    20    15   ar
    37    12     6    1
    38     5     1    1
    39    35    30   ar
    40     7    13    1
    41    21    24    1
    42    26    29    1
