@<TRIPOS>MOLECULE
*****
 27 29 0 0 0
SMALL
GASTEIGER

@<TRIPOS>ATOM
      1 C         140.4464  143.2852  168.9729 C.3     1  UNL1        0.0340
      2 C         140.1317  141.9969  168.2719 C.ar    1  UNL1        0.0124
      3 C         139.8586  140.6779  168.9320 C.ar    1  UNL1        0.0923
      4 N         139.5930  139.6673  167.8558 N.ar    1  UNL1       -0.1684
      5 N         139.7020  140.3617  166.5307 N.ar    1  UNL1       -0.2294
      6 C         140.0349  141.8015  166.7879 C.ar    1  UNL1        0.0800
      7 C         139.5115  139.7276  165.1846 C.ar    1  UNL1        0.0933
      8 C         138.2912  140.0450  164.3721 C.ar    1  UNL1        0.0209
      9 C         138.1007  139.4110  163.0261 C.ar    1  UNL1        0.0130
     10 C         139.1303  138.4596  162.4927 C.ar    1  UNL1        0.0586
     11 CL        138.9398  137.8255  161.1467 Cl      1  UNL1       -0.0822
     12 C         140.3506  138.1422  163.3053 C.ar    1  UNL1        0.0243
     13 C         140.5411  138.7762  164.6513 C.ar    1  UNL1        0.0761
     14 CL        141.7614  138.4588  165.4639 Cl      1  UNL1       -0.0806
     15 C         140.2358  142.8601  165.7443 C.ar    1  UNL1        0.0175
     16 C         139.0902  143.7381  165.3362 C.ar    1  UNL1        0.0024
     17 C         139.2910  144.7966  164.2926 C.ar    1  UNL1        0.0114
     18 C         140.6376  144.9772  163.6570 C.ar    1  UNL1        0.0577
     19 CL        140.8385  146.0357  162.6134 Cl      1  UNL1       -0.0822
     20 C         141.7834  144.0991  164.0651 C.ar    1  UNL1        0.0114
     21 C         141.5825  143.0406  165.1087 C.ar    1  UNL1        0.0024
     22 C         139.8522  140.4155  170.4088 C.3     1  UNL1        0.1166
     23 N         141.1481  140.2883  171.1535 N.3     1  UNL1       -0.2935
     24 H         141.0281  139.5308  171.8260 H       1  UNL1        0.1236
     25 C         142.4180  140.0070  170.4064 C.3     1  UNL1        0.0543
     26 C         143.3443  141.1321  170.0516 C.3     1  UNL1        0.0171
     27 C         142.7614  138.6005  170.0141 C.3     1  UNL1        0.0171
@<TRIPOS>BOND
     1     1     2    1
     2     2     3   ar
     3     3    22    1
     4    22    23    1
     5    23    25    1
     6    25    26    1
     7    25    27    1
     8     3     4   ar
     9     4     5   ar
    10     5     7    1
    11     7     8   ar
    12     8     9   ar
    13     9    10   ar
    14    10    11    1
    15    10    12   ar
    16    12    13   ar
    17    13    14    1
    18     5     6   ar
    19     6    15    1
    20    15    16   ar
    21    16    17   ar
    22    17    18   ar
    23    18    19    1
    24    18    20   ar
    25    20    21   ar
    26     6     2   ar
    27    21    15   ar
    28    13     7   ar
    29    23    24    1
@<TRIPOS>MOLECULE
*****
 27 29 0 0 0
SMALL
GASTEIGER

@<TRIPOS>ATOM
      1 C         137.7503  138.9267  167.2465 C.3     1  UNL1        0.0340
      2 C         139.1151  139.5486  167.2722 C.ar    1  UNL1        0.0124
      3 C         139.7983  140.1261  168.4763 C.ar    1  UNL1        0.0923
      4 N         141.1417  140.6366  168.0465 N.ar    1  UNL1       -0.1684
      5 N         141.2888  140.3745  166.5769 N.ar    1  UNL1       -0.2294
      6 C         140.0363  139.7021  166.0984 C.ar    1  UNL1        0.0800
      7 C         142.4794  140.7236  165.7339 C.ar    1  UNL1        0.0933
      8 C         142.6390  142.1170  165.2018 C.ar    1  UNL1        0.0209
      9 C         143.8295  142.4661  164.3588 C.ar    1  UNL1        0.0130
     10 C         144.8604  141.4219  164.0479 C.ar    1  UNL1        0.0586
     11 CL        146.0510  141.7710  163.2048 Cl      1  UNL1       -0.0822
     12 C         144.7008  140.0285  164.5799 C.ar    1  UNL1        0.0243
     13 C         143.5103  139.6794  165.4229 C.ar    1  UNL1        0.0761
     14 CL        143.3507  138.2860  165.9549 Cl      1  UNL1       -0.0806
     15 C         139.7543  139.2607  164.6928 C.ar    1  UNL1        0.0175
     16 C         140.3507  137.9863  164.1729 C.ar    1  UNL1        0.0024
     17 C         140.0688  137.5449  162.7674 C.ar    1  UNL1        0.0114
     18 C         139.1904  138.3779  161.8816 C.ar    1  UNL1        0.0577
     19 CL        138.9085  137.9365  160.4760 Cl      1  UNL1       -0.0822
     20 C         138.5940  139.6523  162.4015 C.ar    1  UNL1        0.0114
     21 C         138.8760  140.0937  163.8070 C.ar    1  UNL1        0.0024
     22 C         139.2367  140.1832  169.8660 C.3     1  UNL1        0.1166
     23 N         139.1794  141.4909  170.5986 N.3     1  UNL1       -0.2935
     24 H         138.9651  141.2739  171.5719 H       1  UNL1        0.1236
     25 C         140.3745  142.3972  170.6099 C.3     1  UNL1        0.0543
     26 C         141.6420  141.9586  171.2814 C.3     1  UNL1        0.0171
     27 C         140.3021  143.7422  169.9497 C.3     1  UNL1        0.0171
@<TRIPOS>BOND
     1     1     2    1
     2     2     3   ar
     3     3    22    1
     4    22    23    1
     5    23    25    1
     6    25    26    1
     7    25    27    1
     8     3     4   ar
     9     4     5   ar
    10     5     7    1
    11     7     8   ar
    12     8     9   ar
    13     9    10   ar
    14    10    11    1
    15    10    12   ar
    16    12    13   ar
    17    13    14    1
    18     5     6   ar
    19     6    15    1
    20    15    16   ar
    21    16    17   ar
    22    17    18   ar
    23    18    19    1
    24    18    20   ar
    25    20    21   ar
    26     6     2   ar
    27    21    15   ar
    28    13     7   ar
    29    23    24    1
@<TRIPOS>MOLECULE
*****
 27 29 0 0 0
SMALL
GASTEIGER

@<TRIPOS>ATOM
      1 C         143.4938  144.4997  164.4254 C.3     1  UNL1        0.0340
      2 C         142.6119  143.3553  164.0222 C.ar    1  UNL1        0.0124
      3 C         142.2820  142.9491  162.6163 C.ar    1  UNL1        0.0923
      4 N         141.3713  141.7590  162.6793 N.ar    1  UNL1       -0.1684
      5 N         141.1383  141.4295  164.1241 N.ar    1  UNL1       -0.2294
      6 C         141.9050  142.4161  164.9540 C.ar    1  UNL1        0.0800
      7 C         140.2878  140.3100  164.6470 C.ar    1  UNL1        0.0933
      8 C         138.9501  140.6064  165.2574 C.ar    1  UNL1        0.0209
      9 C         138.0996  139.4870  165.7803 C.ar    1  UNL1        0.0130
     10 C         138.5869  138.0711  165.6929 C.ar    1  UNL1        0.0586
     11 CL        137.7364  136.9516  166.2158 Cl      1  UNL1       -0.0822
     12 C         139.9246  137.7746  165.0825 C.ar    1  UNL1        0.0243
     13 C         140.7751  138.8941  164.5596 C.ar    1  UNL1        0.0761
     14 CL        142.1128  138.5976  163.9492 Cl      1  UNL1       -0.0806
     15 C         141.9559  142.4565  166.4525 C.ar    1  UNL1        0.0175
     16 C         140.7351  142.8415  167.2344 C.ar    1  UNL1        0.0024
     17 C         140.7860  142.8819  168.7330 C.ar    1  UNL1        0.0114
     18 C         142.0578  142.5371  169.4498 C.ar    1  UNL1        0.0577
     19 CL        142.1087  142.5775  170.9484 Cl      1  UNL1       -0.0822
     20 C         143.2786  142.1520  168.6679 C.ar    1  UNL1        0.0114
     21 C         143.2277  142.1117  167.1693 C.ar    1  UNL1        0.0024
     22 C         142.7762  143.6161  161.3670 C.3     1  UNL1        0.1166
     23 N         142.2133  144.9432  160.9524 N.3     1  UNL1       -0.2935
     24 H         142.5972  145.1508  160.0305 H       1  UNL1        0.1236
     25 C         140.7283  145.1308  160.8555 C.3     1  UNL1        0.0543
     26 C         139.9761  144.5680  159.6861 C.3     1  UNL1        0.0171
     27 C         139.9955  145.8811  161.9278 C.3     1  UNL1        0.0171
@<TRIPOS>BOND
     1     1     2    1
     2     2     3   ar
     3     3    22    1
     4    22    23    1
     5    23    25    1
     6    25    26    1
     7    25    27    1
     8     3     4   ar
     9     4     5   ar
    10     5     7    1
    11     7     8   ar
    12     8     9   ar
    13     9    10   ar
    14    10    11    1
    15    10    12   ar
    16    12    13   ar
    17    13    14    1
    18     5     6   ar
    19     6    15    1
    20    15    16   ar
    21    16    17   ar
    22    17    18   ar
    23    18    19    1
    24    18    20   ar
    25    20    21   ar
    26     6     2   ar
    27    21    15   ar
    28    13     7   ar
    29    23    24    1
@<TRIPOS>MOLECULE
*****
 27 29 0 0 0
SMALL
GASTEIGER

@<TRIPOS>ATOM
      1 C         139.6831  139.7845  169.1924 C.3     1  UNL1        0.0340
      2 C         139.9242  141.1175  168.5481 C.ar    1  UNL1        0.0124
      3 C         140.2506  142.3957  169.2621 C.ar    1  UNL1        0.0923
      4 N         140.4093  143.4744  168.2320 N.ar    1  UNL1       -0.1684
      5 N         140.1810  142.8630  166.8814 N.ar    1  UNL1       -0.2294
      6 C         139.8812  141.4063  167.0768 C.ar    1  UNL1        0.0800
      7 C         140.2419  143.5820  165.5663 C.ar    1  UNL1        0.0933
      8 C         139.0324  144.3029  165.0491 C.ar    1  UNL1        0.0209
      9 C         139.0932  145.0219  163.7341 C.ar    1  UNL1        0.0130
     10 C         140.3634  145.0199  162.9363 C.ar    1  UNL1        0.0586
     11 CL        140.4243  145.7390  161.6212 Cl      1  UNL1       -0.0822
     12 C         141.5729  144.2990  163.4536 C.ar    1  UNL1        0.0243
     13 C         141.5121  143.5800  164.7686 C.ar    1  UNL1        0.0761
     14 CL        142.7215  142.8591  165.2858 Cl      1  UNL1       -0.0806
     15 C         139.5896  140.4128  165.9915 C.ar    1  UNL1        0.0175
     16 C         140.5272  139.2668  165.7519 C.ar    1  UNL1        0.0024
     17 C         140.2355  138.2733  164.6666 C.ar    1  UNL1        0.0114
     18 C         139.0062  138.4259  163.8208 C.ar    1  UNL1        0.0577
     19 CL        138.7145  137.4324  162.7355 Cl      1  UNL1       -0.0822
     20 C         138.0685  139.5719  164.0604 C.ar    1  UNL1        0.0114
     21 C         138.3601  140.5654  165.1457 C.ar    1  UNL1        0.0024
     22 C         140.3933  142.5654  170.7456 C.3     1  UNL1        0.1166
     23 N         141.6321  142.0825  171.4400 N.3     1  UNL1       -0.2935
     24 H         141.3372  141.3678  172.1053 H       1  UNL1        0.1236
     25 C         142.7577  141.4936  170.6424 C.3     1  UNL1        0.0543
     26 C         143.6922  142.3918  169.8876 C.3     1  UNL1        0.0171
     27 C         142.9487  140.0064  170.5997 C.3     1  UNL1        0.0171
@<TRIPOS>BOND
     1     1     2    1
     2     2     3   ar
     3     3    22    1
     4    22    23    1
     5    23    25    1
     6    25    26    1
     7    25    27    1
     8     3     4   ar
     9     4     5   ar
    10     5     7    1
    11     7     8   ar
    12     8     9   ar
    13     9    10   ar
    14    10    11    1
    15    10    12   ar
    16    12    13   ar
    17    13    14    1
    18     5     6   ar
    19     6    15    1
    20    15    16   ar
    21    16    17   ar
    22    17    18   ar
    23    18    19    1
    24    18    20   ar
    25    20    21   ar
    26     6     2   ar
    27    21    15   ar
    28    13     7   ar
    29    23    24    1
@<TRIPOS>MOLECULE
*****
 27 29 0 0 0
SMALL
GASTEIGER

@<TRIPOS>ATOM
      1 C         137.9720  138.7176  167.1050 C.3     1  UNL1        0.0340
      2 C         138.9543  139.8503  167.1518 C.ar    1  UNL1        0.0124
      3 C         139.4604  140.5278  168.3907 C.ar    1  UNL1        0.0923
      4 N         140.4218  141.6005  167.9725 N.ar    1  UNL1       -0.1684
      5 N         140.5099  141.5860  166.4751 N.ar    1  UNL1       -0.2294
      6 C         139.6030  140.5042  165.9679 C.ar    1  UNL1        0.0800
      7 C         141.3565  142.4938  165.6329 C.ar    1  UNL1        0.0933
      8 C         142.8265  142.2310  165.4914 C.ar    1  UNL1        0.0209
      9 C         143.6730  143.1388  164.6492 C.ar    1  UNL1        0.0130
     10 C         143.0495  144.3093  163.9485 C.ar    1  UNL1        0.0586
     11 CL        143.8960  145.2171  163.1062 Cl      1  UNL1       -0.0822
     12 C         141.5795  144.5720  164.0899 C.ar    1  UNL1        0.0243
     13 C         140.7330  143.6643  164.9321 C.ar    1  UNL1        0.0761
     14 CL        139.2629  143.9270  165.0735 Cl      1  UNL1       -0.0806
     15 C         139.3832  140.1404  164.5294 C.ar    1  UNL1        0.0175
     16 C         140.4339  139.3758  163.7802 C.ar    1  UNL1        0.0024
     17 C         140.2141  139.0119  162.3417 C.ar    1  UNL1        0.0114
     18 C         138.9436  139.4126  161.6524 C.ar    1  UNL1        0.0577
     19 CL        138.7238  139.0487  160.2139 Cl      1  UNL1       -0.0822
     20 C         137.8929  140.1773  162.4016 C.ar    1  UNL1        0.0114
     21 C         138.1126  140.5412  163.8401 C.ar    1  UNL1        0.0024
     22 C         139.0730  140.1916  169.8003 C.3     1  UNL1        0.1166
     23 N         140.0592  139.5198  170.7091 N.3     1  UNL1       -0.2935
     24 H         139.9880  138.5178  170.5317 H       1  UNL1        0.1236
     25 C         141.5151  139.8716  170.6273 C.3     1  UNL1        0.0543
     26 C         142.0037  141.1762  171.1835 C.3     1  UNL1        0.0171
     27 C         142.4822  138.9190  169.9893 C.3     1  UNL1        0.0171
@<TRIPOS>BOND
     1     1     2    1
     2     2     3   ar
     3     3    22    1
     4    22    23    1
     5    23    25    1
     6    25    26    1
     7    25    27    1
     8     3     4   ar
     9     4     5   ar
    10     5     7    1
    11     7     8   ar
    12     8     9   ar
    13     9    10   ar
    14    10    11    1
    15    10    12   ar
    16    12    13   ar
    17    13    14    1
    18     5     6   ar
    19     6    15    1
    20    15    16   ar
    21    16    17   ar
    22    17    18   ar
    23    18    19    1
    24    18    20   ar
    25    20    21   ar
    26     6     2   ar
    27    21    15   ar
    28    13     7   ar
    29    23    24    1
@<TRIPOS>MOLECULE
*****
 27 29 0 0 0
SMALL
GASTEIGER

@<TRIPOS>ATOM
      1 C         143.9185  137.9181  166.8939 C.3     1  UNL1        0.0340
      2 C         142.8396  138.9574  166.9705 C.ar    1  UNL1        0.0124
      3 C         142.2244  139.4987  168.2270 C.ar    1  UNL1        0.0923
      4 N         141.1911  140.5137  167.8371 N.ar    1  UNL1       -0.1684
      5 N         141.1677  140.5997  166.3397 N.ar    1  UNL1       -0.2294
      6 C         142.1865  139.6379  165.8042 C.ar    1  UNL1        0.0800
      7 C         140.2811  141.4912  165.5216 C.ar    1  UNL1        0.0933
      8 C         140.8020  142.8013  165.0095 C.ar    1  UNL1        0.0209
      9 C         139.9154  143.6927  164.1914 C.ar    1  UNL1        0.0130
     10 C         138.5080  143.2740  163.8853 C.ar    1  UNL1        0.0586
     11 CL        137.6213  144.1655  163.0672 Cl      1  UNL1       -0.0822
     12 C         137.9871  141.9639  164.3974 C.ar    1  UNL1        0.0243
     13 C         138.8736  141.0725  165.2155 C.ar    1  UNL1        0.0761
     14 CL        138.3527  139.7623  165.7276 Cl      1  UNL1       -0.0806
     15 C         142.4977  139.3986  164.3565 C.ar    1  UNL1        0.0175
     16 C         143.5458  140.2220  163.6685 C.ar    1  UNL1        0.0024
     17 C         143.8570  139.9826  162.2208 C.ar    1  UNL1        0.0114
     18 C         143.1200  138.9199  161.4610 C.ar    1  UNL1        0.0577
     19 CL        143.4312  138.6805  160.0133 Cl      1  UNL1       -0.0822
     20 C         142.0718  138.0964  162.1490 C.ar    1  UNL1        0.0114
     21 C         141.7606  138.3357  163.5967 C.ar    1  UNL1        0.0024
     22 C         142.5800  139.0956  169.6274 C.3     1  UNL1        0.1166
     23 N         143.3143  140.0521  170.5195 N.3     1  UNL1       -0.2935
     24 H         144.3069  139.9488  170.3083 H       1  UNL1        0.1236
     25 C         143.0091  141.5195  170.4585 C.3     1  UNL1        0.0543
     26 C         141.7554  142.0514  171.0871 C.3     1  UNL1        0.0171
     27 C         143.9576  142.4548  169.7689 C.3     1  UNL1        0.0171
@<TRIPOS>BOND
     1     1     2    1
     2     2     3   ar
     3     3    22    1
     4    22    23    1
     5    23    25    1
     6    25    26    1
     7    25    27    1
     8     3     4   ar
     9     4     5   ar
    10     5     7    1
    11     7     8   ar
    12     8     9   ar
    13     9    10   ar
    14    10    11    1
    15    10    12   ar
    16    12    13   ar
    17    13    14    1
    18     5     6   ar
    19     6    15    1
    20    15    16   ar
    21    16    17   ar
    22    17    18   ar
    23    18    19    1
    24    18    20   ar
    25    20    21   ar
    26     6     2   ar
    27    21    15   ar
    28    13     7   ar
    29    23    24    1
@<TRIPOS>MOLECULE
*****
 27 29 0 0 0
SMALL
GASTEIGER

@<TRIPOS>ATOM
      1 C         139.9618  140.9674  168.8117 C.3     1  UNL1        0.0340
      2 C         141.0186  140.3118  167.9731 C.ar    1  UNL1        0.0124
      3 C         142.1542  139.4741  168.4820 C.ar    1  UNL1        0.0923
      4 N         142.9627  139.0233  167.3017 N.ar    1  UNL1       -0.1684
      5 N         142.3269  139.5823  166.0635 N.ar    1  UNL1       -0.2294
      6 C         141.1254  140.3786  166.4784 C.ar    1  UNL1        0.0800
      7 C         142.8082  139.3805  164.6571 C.ar    1  UNL1        0.0933
      8 C         143.8370  140.3048  164.0766 C.ar    1  UNL1        0.0209
      9 C         144.3183  140.1030  162.6703 C.ar    1  UNL1        0.0130
     10 C         143.7708  138.9768  161.8446 C.ar    1  UNL1        0.0586
     11 CL        144.2521  138.7750  160.4383 Cl      1  UNL1       -0.0822
     12 C         142.7419  138.0525  162.4252 C.ar    1  UNL1        0.0243
     13 C         142.2606  138.2543  163.8314 C.ar    1  UNL1        0.0761
     14 CL        141.2318  137.3299  164.4120 Cl      1  UNL1       -0.0806
     15 C         140.1941  141.1129  165.5599 C.ar    1  UNL1        0.0175
     16 C         139.0906  140.3738  164.8630 C.ar    1  UNL1        0.0024
     17 C         138.1593  141.1081  163.9445 C.ar    1  UNL1        0.0114
     18 C         138.3316  142.5816  163.7230 C.ar    1  UNL1        0.0577
     19 CL        137.4003  143.3158  162.8046 Cl      1  UNL1       -0.0822
     20 C         139.4352  143.3208  164.4200 C.ar    1  UNL1        0.0114
     21 C         140.3664  142.5865  165.3385 C.ar    1  UNL1        0.0024
     22 C         142.4323  139.1451  169.9187 C.3     1  UNL1        0.1166
     23 N         143.2620  140.0746  170.7540 N.3     1  UNL1       -0.2935
     24 H         144.2379  139.8790  170.5309 H       1  UNL1        0.1236
     25 C         143.0788  141.5583  170.6316 C.3     1  UNL1        0.0543
     26 C         144.0692  142.3748  169.8554 C.3     1  UNL1        0.0171
     27 C         141.9052  142.2255  171.2855 C.3     1  UNL1        0.0171
@<TRIPOS>BOND
     1     1     2    1
     2     2     3   ar
     3     3    22    1
     4    22    23    1
     5    23    25    1
     6    25    26    1
     7    25    27    1
     8     3     4   ar
     9     4     5   ar
    10     5     7    1
    11     7     8   ar
    12     8     9   ar
    13     9    10   ar
    14    10    11    1
    15    10    12   ar
    16    12    13   ar
    17    13    14    1
    18     5     6   ar
    19     6    15    1
    20    15    16   ar
    21    16    17   ar
    22    17    18   ar
    23    18    19    1
    24    18    20   ar
    25    20    21   ar
    26     6     2   ar
    27    21    15   ar
    28    13     7   ar
    29    23    24    1
@<TRIPOS>MOLECULE
*****
 27 29 0 0 0
SMALL
GASTEIGER

@<TRIPOS>ATOM
      1 C         140.9264  142.8891  168.9130 C.3     1  UNL1        0.0340
      2 C         140.3937  141.7760  168.0602 C.ar    1  UNL1        0.0124
      3 C         139.5471  140.6312  168.5324 C.ar    1  UNL1        0.0923
      4 N         139.2442  139.7600  167.3495 N.ar    1  UNL1       -0.1684
      5 N         139.9036  140.3663  166.1463 N.ar    1  UNL1       -0.2294
      6 C         140.6140  141.6122  166.5856 C.ar    1  UNL1        0.0800
      7 C         139.8602  139.8221  164.7491 C.ar    1  UNL1        0.0933
      8 C         140.8298  138.7578  164.3283 C.ar    1  UNL1        0.0209
      9 C         140.7864  138.2136  162.9312 C.ar    1  UNL1        0.0130
     10 C         139.7734  138.7337  161.9550 C.ar    1  UNL1        0.0586
     11 CL        139.7299  138.1895  160.5578 Cl      1  UNL1       -0.0822
     12 C         138.8037  139.7980  162.3758 C.ar    1  UNL1        0.0243
     13 C         138.8471  140.3422  163.7729 C.ar    1  UNL1        0.0761
     14 CL        137.8774  141.4064  164.1937 Cl      1  UNL1       -0.0806
     15 C         141.4057  142.5328  165.7048 C.ar    1  UNL1        0.0175
     16 C         140.7071  143.5972  164.9119 C.ar    1  UNL1        0.0024
     17 C         141.4988  144.5178  164.0312 C.ar    1  UNL1        0.0114
     18 C         142.9893  144.3739  163.9433 C.ar    1  UNL1        0.0577
     19 CL        143.7811  145.2944  163.0626 Cl      1  UNL1       -0.0822
     20 C         143.6880  143.3093  164.7363 C.ar    1  UNL1        0.0114
     21 C         142.8963  142.3888  165.6170 C.ar    1  UNL1        0.0024
     22 C         139.0846  140.3986  169.9402 C.3     1  UNL1        0.1166
     23 N         139.9908  139.7211  170.9250 N.3     1  UNL1       -0.2935
     24 H         139.8034  138.7207  170.8577 H       1  UNL1        0.1236
     25 C         141.4771  139.8915  170.8169 C.3     1  UNL1        0.0543
     26 C         142.2925  138.8937  170.0491 C.3     1  UNL1        0.0171
     27 C         142.1481  141.0597  171.4766 C.3     1  UNL1        0.0171
@<TRIPOS>BOND
     1     1     2    1
     2     2     3   ar
     3     3    22    1
     4    22    23    1
     5    23    25    1
     6    25    26    1
     7    25    27    1
     8     3     4   ar
     9     4     5   ar
    10     5     7    1
    11     7     8   ar
    12     8     9   ar
    13     9    10   ar
    14    10    11    1
    15    10    12   ar
    16    12    13   ar
    17    13    14    1
    18     5     6   ar
    19     6    15    1
    20    15    16   ar
    21    16    17   ar
    22    17    18   ar
    23    18    19    1
    24    18    20   ar
    25    20    21   ar
    26     6     2   ar
    27    21    15   ar
    28    13     7   ar
    29    23    24    1
@<TRIPOS>MOLECULE
*****
 27 29 0 0 0
SMALL
GASTEIGER

@<TRIPOS>ATOM
      1 C         141.8145  142.4574  168.2710 C.3     1  UNL1        0.0340
      2 C         142.1219  141.2068  167.5019 C.ar    1  UNL1        0.0124
      3 C         142.4599  139.8696  168.0916 C.ar    1  UNL1        0.0923
      4 N         142.6922  138.9103  166.9622 N.ar    1  UNL1       -0.1684
      5 N         142.4978  139.6545  165.6744 N.ar    1  UNL1       -0.2294
      6 C         142.1453  141.0738  166.0080 C.ar    1  UNL1        0.0800
      7 C         142.6322  139.0802  164.2952 C.ar    1  UNL1        0.0933
      8 C         141.4768  138.3585  163.6674 C.ar    1  UNL1        0.0209
      9 C         141.6112  137.7842  162.2883 C.ar    1  UNL1        0.0130
     10 C         142.9010  137.9316  161.5369 C.ar    1  UNL1        0.0586
     11 CL        143.0354  137.3573  160.1577 Cl      1  UNL1       -0.0822
     12 C         144.0564  138.6534  162.1647 C.ar    1  UNL1        0.0243
     13 C         143.9220  139.2277  163.5438 C.ar    1  UNL1        0.0761
     14 CL        145.0775  139.9494  164.1716 Cl      1  UNL1       -0.0806
     15 C         141.8654  142.1681  165.0210 C.ar    1  UNL1        0.0175
     16 C         140.4927  142.3165  164.4348 C.ar    1  UNL1        0.0024
     17 C         140.2128  143.4108  163.4478 C.ar    1  UNL1        0.0114
     18 C         141.3056  144.3567  163.0469 C.ar    1  UNL1        0.0577
     19 CL        141.0257  145.4510  162.0599 Cl      1  UNL1       -0.0822
     20 C         142.6784  144.2084  163.6331 C.ar    1  UNL1        0.0114
     21 C         142.9583  143.1141  164.6201 C.ar    1  UNL1        0.0024
     22 C         142.5498  139.5482  169.5540 C.3     1  UNL1        0.1166
     23 N         141.3027  139.2640  170.3375 N.3     1  UNL1       -0.2935
     24 H         141.6004  138.9178  171.2496 H       1  UNL1        0.1236
     25 C         140.3113  140.3603  170.5930 C.3     1  UNL1        0.0543
     26 C         140.6821  141.5165  171.4737 C.3     1  UNL1        0.0171
     27 C         138.9492  140.3004  169.9677 C.3     1  UNL1        0.0171
@<TRIPOS>BOND
     1     1     2    1
     2     2     3   ar
     3     3    22    1
     4    22    23    1
     5    23    25    1
     6    25    26    1
     7    25    27    1
     8     3     4   ar
     9     4     5   ar
    10     5     7    1
    11     7     8   ar
    12     8     9   ar
    13     9    10   ar
    14    10    11    1
    15    10    12   ar
    16    12    13   ar
    17    13    14    1
    18     5     6   ar
    19     6    15    1
    20    15    16   ar
    21    16    17   ar
    22    17    18   ar
    23    18    19    1
    24    18    20   ar
    25    20    21   ar
    26     6     2   ar
    27    21    15   ar
    28    13     7   ar
    29    23    24    1
