@<TRIPOS>MOLECULE
*****
 30 35 0 0 0
SMALL
GASTEIGER

@<TRIPOS>ATOM
      1 O         139.9734  146.5761  161.8935 O.2     1  UNL1       -0.1685
      2 S         139.9366  145.1349  161.4793 S.O2    1  UNL1        0.0138
      3 O         139.1453  144.9558  162.7409 O.2     1  UNL1       -0.1685
      4 C         140.7356  145.6155  160.3043 C.3     1  UNL1        0.2163
      5 C         141.0271  144.4337  159.4275 C.3     1  UNL1        0.2316
      6 O         141.3186  143.2520  158.5509 O.3     1  UNL1       -0.3268
      7 C         142.1176  143.7325  157.3758 C.3     1  UNL1        0.1771
      8 C         142.3199  145.2112  157.5263 C.3     1  UNL1        0.1771
      9 O         141.6459  145.6445  158.7943 O.3     1  UNL1       -0.3268
     10 C         140.4082  143.2229  160.0608 C.ar    1  UNL1        0.0487
     11 C         140.3714  141.7817  159.6466 C.ar    1  UNL1        0.0209
     12 C         139.6605  140.7739  160.5004 C.ar    1  UNL1        0.0824
     13 N         139.6236  139.3327  160.0862 N.ar    1  UNL1       -0.2438
     14 C         138.9128  138.3249  160.9400 C.ar    1  UNL1        0.1001
     15 C         138.2388  138.7583  162.2080 C.ar    1  UNL1        0.0353
     16 C         138.2757  140.1995  162.6222 C.ar    1  UNL1        0.0513
     17 C         138.9865  141.2072  161.7684 C.ar    1  UNL1        0.0324
     18 C         139.0234  142.6485  162.1827 C.ar    1  UNL1        0.0209
     19 C         139.7342  143.6563  161.3289 C.ar    1  UNL1        0.1066
     20 N         137.6017  140.6328  163.8903 N.pl3   1  UNL1       -0.3124
     21 H         136.6977  141.0214  163.8593 H       1  UNL1        0.1522
     22 C         138.3051  140.4742  165.2056 C.ar    1  UNL1        0.0499
     23 C         137.9706  139.3176  166.1003 C.ar    1  UNL1        0.0152
     24 C         138.6740  139.1590  167.4156 C.ar    1  UNL1        0.0093
     25 C         139.7119  140.1569  167.8362 C.ar    1  UNL1        0.0486
     26 S         140.5647  140.2602  169.0658 S.2     1  UNL1       -0.0645
     27 C         141.4263  141.4807  168.9311 C.ar    1  UNL1        0.1345
     28 N         141.1060  142.1316  167.6181 N.ar    1  UNL1       -0.2362
     29 C         140.0465  141.3134  166.9415 C.ar    1  UNL1        0.0892
     30 C         139.3431  141.4721  165.6262 C.ar    1  UNL1        0.0342
@<TRIPOS>BOND
     1     1     2    2
     2     2     3    2
     3     2     4    1
     4     4     5    1
     5     5     6    1
     6     6     7    1
     7     7     8    1
     8     8     9    1
     9     5    10    1
    10    10    11   ar
    11    11    12   ar
    12    12    13   ar
    13    13    14   ar
    14    14    15   ar
    15    15    16   ar
    16    16    20    1
    17    20    22    1
    18    22    23   ar
    19    23    24   ar
    20    24    25   ar
    21    25    26   ar
    22    26    27   ar
    23    27    28   ar
    24    28    29   ar
    25    29    30   ar
    26    16    17   ar
    27    17    18   ar
    28    18    19   ar
    29    19     2    1
    30     9     5    1
    31    19    10   ar
    32    17    12   ar
    33    30    22   ar
    34    29    25   ar
    35    20    21    1
@<TRIPOS>MOLECULE
*****
 30 35 0 0 0
SMALL
GASTEIGER

@<TRIPOS>ATOM
      1 O         138.7012  145.8820  162.0905 O.2     1  UNL1       -0.1685
      2 S         139.9943  145.1267  162.0040 S.O2    1  UNL1        0.0138
      3 O         139.7600  144.8700  163.4632 O.2     1  UNL1       -0.1685
      4 C         139.9582  145.5414  160.5629 C.3     1  UNL1        0.2163
      5 C         141.1801  144.9887  159.8908 C.3     1  UNL1        0.2316
      6 O         142.4020  144.4360  159.2188 O.3     1  UNL1       -0.3268
      7 C         142.3659  144.8506  157.7777 C.3     1  UNL1        0.1771
      8 C         141.1218  145.6595  157.5591 C.3     1  UNL1        0.1771
      9 O         140.3889  145.7449  158.8651 O.3     1  UNL1       -0.3268
     10 C         141.9713  144.2324  160.9167 C.ar    1  UNL1        0.0487
     11 C         143.2643  143.4772  160.8302 C.ar    1  UNL1        0.0209
     12 C         143.8246  142.8072  162.0498 C.ar    1  UNL1        0.0824
     13 N         145.1177  142.0520  161.9633 N.ar    1  UNL1       -0.2438
     14 C         145.6779  141.3820  163.1828 C.ar    1  UNL1        0.1001
     15 C         144.9451  141.4674  164.4888 C.ar    1  UNL1        0.0353
     16 C         143.6520  142.2226  164.5753 C.ar    1  UNL1        0.0513
     17 C         143.0918  142.8925  163.3558 C.ar    1  UNL1        0.0324
     18 C         141.7986  143.6479  163.4422 C.ar    1  UNL1        0.0209
     19 C         141.2384  144.3178  162.2227 C.ar    1  UNL1        0.1066
     20 N         142.9191  142.3080  165.8813 N.pl3   1  UNL1       -0.3124
     21 H         143.2247  142.9337  166.5772 H       1  UNL1        0.1522
     22 C         141.7208  141.4399  166.1270 C.ar    1  UNL1        0.0499
     23 C         140.7986  141.7408  167.2712 C.ar    1  UNL1        0.0152
     24 C         139.6003  140.8727  167.5169 C.ar    1  UNL1        0.0093
     25 C         139.3241  139.7037  166.6184 C.ar    1  UNL1        0.0486
     26 S         138.2295  138.6783  166.6137 S.2     1  UNL1       -0.0645
     27 C         138.4751  137.7434  165.4665 C.ar    1  UNL1        0.1345
     28 N         139.7216  138.1913  164.7623 N.ar    1  UNL1       -0.2362
     29 C         140.2462  139.4028  165.4743 C.ar    1  UNL1        0.0892
     30 C         141.4446  140.2709  165.2286 C.ar    1  UNL1        0.0342
@<TRIPOS>BOND
     1     1     2    2
     2     2     3    2
     3     2     4    1
     4     4     5    1
     5     5     6    1
     6     6     7    1
     7     7     8    1
     8     8     9    1
     9     5    10    1
    10    10    11   ar
    11    11    12   ar
    12    12    13   ar
    13    13    14   ar
    14    14    15   ar
    15    15    16   ar
    16    16    20    1
    17    20    22    1
    18    22    23   ar
    19    23    24   ar
    20    24    25   ar
    21    25    26   ar
    22    26    27   ar
    23    27    28   ar
    24    28    29   ar
    25    29    30   ar
    26    16    17   ar
    27    17    18   ar
    28    18    19   ar
    29    19     2    1
    30     9     5    1
    31    19    10   ar
    32    17    12   ar
    33    30    22   ar
    34    29    25   ar
    35    20    21    1
@<TRIPOS>MOLECULE
*****
 30 35 0 0 0
SMALL
GASTEIGER

@<TRIPOS>ATOM
      1 O         139.2183  146.2927  161.6578 O.2     1  UNL1       -0.1685
      2 S         139.7956  144.9085  161.6365 S.O2    1  UNL1        0.0138
      3 O         138.9756  144.7173  162.8779 O.2     1  UNL1       -0.1685
      4 C         140.4949  145.3891  160.3996 C.3     1  UNL1        0.2163
      5 C         141.3331  144.2618  159.8733 C.3     1  UNL1        0.2316
      6 O         142.1712  143.1346  159.3471 O.3     1  UNL1       -0.3268
      7 C         142.8705  143.6152  158.1102 C.3     1  UNL1        0.1771
      8 C         142.4646  145.0395  157.8719 C.3     1  UNL1        0.1771
      9 O         141.5144  145.4391  158.9616 O.3     1  UNL1       -0.3268
     10 C         141.1517  143.0846  160.7850 C.ar    1  UNL1        0.0487
     11 C         141.7291  141.7003  160.7637 C.ar    1  UNL1        0.0209
     12 C         141.3563  140.7157  161.8322 C.ar    1  UNL1        0.0824
     13 N         141.9336  139.3314  161.8109 N.ar    1  UNL1       -0.2438
     14 C         141.5608  138.3468  162.8793 C.ar    1  UNL1        0.1001
     15 C         140.6106  138.7465  163.9690 C.ar    1  UNL1        0.0353
     16 C         140.0333  140.1307  163.9903 C.ar    1  UNL1        0.0513
     17 C         140.4061  141.1153  162.9219 C.ar    1  UNL1        0.0324
     18 C         139.8287  142.4996  162.9431 C.ar    1  UNL1        0.0209
     19 C         140.2016  143.4842  161.8747 C.ar    1  UNL1        0.1066
     20 N         139.0831  140.5303  165.0800 N.pl3   1  UNL1       -0.3124
     21 H         138.1128  140.5247  164.9135 H       1  UNL1        0.1522
     22 C         139.6113  140.9386  166.4232 C.ar    1  UNL1        0.0499
     23 C         140.2314  142.2923  166.6054 C.ar    1  UNL1        0.0152
     24 C         140.7596  142.7005  167.9487 C.ar    1  UNL1        0.0093
     25 C         140.6677  141.7553  169.1097 C.ar    1  UNL1        0.0486
     26 S         141.0988  141.8787  170.5410 S.2     1  UNL1       -0.0645
     27 C         140.7452  140.6014  171.2435 C.ar    1  UNL1        0.1345
     28 N         140.0954  139.6885  170.2462 N.ar    1  UNL1       -0.2362
     29 C         140.0475  140.4017  168.9275 C.ar    1  UNL1        0.0892
     30 C         139.5193  139.9933  167.5842 C.ar    1  UNL1        0.0342
@<TRIPOS>BOND
     1     1     2    2
     2     2     3    2
     3     2     4    1
     4     4     5    1
     5     5     6    1
     6     6     7    1
     7     7     8    1
     8     8     9    1
     9     5    10    1
    10    10    11   ar
    11    11    12   ar
    12    12    13   ar
    13    13    14   ar
    14    14    15   ar
    15    15    16   ar
    16    16    20    1
    17    20    22    1
    18    22    23   ar
    19    23    24   ar
    20    24    25   ar
    21    25    26   ar
    22    26    27   ar
    23    27    28   ar
    24    28    29   ar
    25    29    30   ar
    26    16    17   ar
    27    17    18   ar
    28    18    19   ar
    29    19     2    1
    30     9     5    1
    31    19    10   ar
    32    17    12   ar
    33    30    22   ar
    34    29    25   ar
    35    20    21    1
@<TRIPOS>MOLECULE
*****
 30 35 0 0 0
SMALL
GASTEIGER

@<TRIPOS>ATOM
      1 O         137.4724  141.6683  161.6497 O.2     1  UNL1       -0.1685
      2 S         138.9613  141.7357  161.8187 S.O2    1  UNL1        0.0138
      3 O         138.7369  140.6549  162.8343 O.2     1  UNL1       -0.1685
      4 C         138.8743  142.8024  160.7677 C.3     1  UNL1        0.2163
      5 C         140.2627  143.3032  160.4995 C.3     1  UNL1        0.2316
      6 O         141.6510  143.8039  160.2314 O.3     1  UNL1       -0.3268
      7 C         141.5640  144.8706  159.1804 C.3     1  UNL1        0.1771
      8 C         140.1220  145.0292  158.7991 C.3     1  UNL1        0.1771
      9 O         139.3177  144.0605  159.6143 O.3     1  UNL1       -0.3268
     10 C         141.2076  142.5458  161.3848 C.ar    1  UNL1        0.0487
     11 C         142.6965  142.6132  161.5538 C.ar    1  UNL1        0.0209
     12 C         143.3811  141.7118  162.5381 C.ar    1  UNL1        0.0824
     13 N         144.8700  141.7792  162.7071 N.ar    1  UNL1       -0.2438
     14 C         145.5546  140.8779  163.6914 C.ar    1  UNL1        0.1001
     15 C         144.7503  139.9091  164.5066 C.ar    1  UNL1        0.0353
     16 C         143.2615  139.8418  164.3376 C.ar    1  UNL1        0.0513
     17 C         142.5769  140.7431  163.3534 C.ar    1  UNL1        0.0324
     18 C         141.0879  140.6758  163.1843 C.ar    1  UNL1        0.0209
     19 C         140.4033  141.5771  162.2000 C.ar    1  UNL1        0.1066
     20 N         142.4572  138.8730  165.1529 N.pl3   1  UNL1       -0.3124
     21 H         142.3705  137.9369  164.8607 H       1  UNL1        0.1522
     22 C         141.7849  139.3306  166.4133 C.ar    1  UNL1        0.0499
     23 C         140.2980  139.5263  166.4418 C.ar    1  UNL1        0.0152
     24 C         139.6257  139.9838  167.7022 C.ar    1  UNL1        0.0093
     25 C         140.4403  140.2457  168.9342 C.ar    1  UNL1        0.0486
     26 S         140.0590  140.7012  170.3114 S.2     1  UNL1       -0.0645
     27 C         141.3102  140.7870  171.1343 C.ar    1  UNL1        0.1345
     28 N         142.4649  140.3846  170.2655 N.ar    1  UNL1       -0.2362
     29 C         141.9272  140.0500  168.9057 C.ar    1  UNL1        0.0892
     30 C         142.5995  139.5924  167.6453 C.ar    1  UNL1        0.0342
@<TRIPOS>BOND
     1     1     2    2
     2     2     3    2
     3     2     4    1
     4     4     5    1
     5     5     6    1
     6     6     7    1
     7     7     8    1
     8     8     9    1
     9     5    10    1
    10    10    11   ar
    11    11    12   ar
    12    12    13   ar
    13    13    14   ar
    14    14    15   ar
    15    15    16   ar
    16    16    20    1
    17    20    22    1
    18    22    23   ar
    19    23    24   ar
    20    24    25   ar
    21    25    26   ar
    22    26    27   ar
    23    27    28   ar
    24    28    29   ar
    25    29    30   ar
    26    16    17   ar
    27    17    18   ar
    28    18    19   ar
    29    19     2    1
    30     9     5    1
    31    19    10   ar
    32    17    12   ar
    33    30    22   ar
    34    29    25   ar
    35    20    21    1
@<TRIPOS>MOLECULE
*****
 30 35 0 0 0
SMALL
GASTEIGER

@<TRIPOS>ATOM
      1 O         144.1073  137.6619  161.6952 O.2     1  UNL1       -0.1685
      2 S         143.0679  138.7381  161.5886 S.O2    1  UNL1        0.0138
      3 O         142.6085  138.2070  162.9140 O.2     1  UNL1       -0.1685
      4 C         143.7447  139.0441  160.2854 C.3     1  UNL1        0.2163
      5 C         143.0275  140.1985  159.6505 C.3     1  UNL1        0.2316
      6 O         142.3102  141.3528  159.0156 O.3     1  UNL1       -0.3268
      7 C         142.9870  141.6589  157.7124 C.3     1  UNL1        0.1771
      8 C         144.1225  140.6937  157.5418 C.3     1  UNL1        0.1771
      9 O         144.1475  139.7911  158.7396 O.3     1  UNL1       -0.3268
     10 C         141.9074  140.6058  160.5613 C.ar    1  UNL1        0.0487
     11 C         140.8681  141.6820  160.4548 C.ar    1  UNL1        0.0209
     12 C         139.8536  141.8557  161.5460 C.ar    1  UNL1        0.0824
     13 N         138.8142  142.9319  161.4395 N.ar    1  UNL1       -0.2438
     14 C         137.7998  143.1056  162.5307 C.ar    1  UNL1        0.1001
     15 C         137.8248  142.2030  163.7285 C.ar    1  UNL1        0.0353
     16 C         138.8642  141.1268  163.8351 C.ar    1  UNL1        0.0513
     17 C         139.8786  140.9532  162.7438 C.ar    1  UNL1        0.0324
     18 C         140.9181  139.8769  162.8504 C.ar    1  UNL1        0.0209
     19 C         141.9324  139.7033  161.7591 C.ar    1  UNL1        0.1066
     20 N         138.8892  140.2242  165.0329 N.pl3   1  UNL1       -0.3124
     21 H         138.5221  139.3129  164.9703 H       1  UNL1        0.1522
     22 C         139.4736  140.7101  166.3260 C.ar    1  UNL1        0.0499
     23 C         140.1809  142.0319  166.3797 C.ar    1  UNL1        0.0152
     24 C         140.7653  142.5178  167.6729 C.ar    1  UNL1        0.0093
     25 C         140.6423  141.6821  168.9124 C.ar    1  UNL1        0.0486
     26 S         141.1143  141.8985  170.3196 S.2     1  UNL1       -0.0645
     27 C         140.6986  140.7105  171.1358 C.ar    1  UNL1        0.1345
     28 N         139.9698  139.7599  170.2329 N.ar    1  UNL1       -0.2362
     29 C         139.9350  140.3604  168.8588 C.ar    1  UNL1        0.0892
     30 C         139.3506  139.8744  167.5656 C.ar    1  UNL1        0.0342
@<TRIPOS>BOND
     1     1     2    2
     2     2     3    2
     3     2     4    1
     4     4     5    1
     5     5     6    1
     6     6     7    1
     7     7     8    1
     8     8     9    1
     9     5    10    1
    10    10    11   ar
    11    11    12   ar
    12    12    13   ar
    13    13    14   ar
    14    14    15   ar
    15    15    16   ar
    16    16    20    1
    17    20    22    1
    18    22    23   ar
    19    23    24   ar
    20    24    25   ar
    21    25    26   ar
    22    26    27   ar
    23    27    28   ar
    24    28    29   ar
    25    29    30   ar
    26    16    17   ar
    27    17    18   ar
    28    18    19   ar
    29    19     2    1
    30     9     5    1
    31    19    10   ar
    32    17    12   ar
    33    30    22   ar
    34    29    25   ar
    35    20    21    1
@<TRIPOS>MOLECULE
*****
 30 35 0 0 0
SMALL
GASTEIGER

@<TRIPOS>ATOM
      1 O         144.0058  144.4428  163.0819 O.2     1  UNL1       -0.1685
      2 S         142.9750  143.4112  162.7311 S.O2    1  UNL1        0.0138
      3 O         143.5468  142.6694  163.9027 O.2     1  UNL1       -0.1685
      4 C         142.6187  144.3686  161.6328 C.3     1  UNL1        0.2163
      5 C         141.4872  143.7736  160.8480 C.3     1  UNL1        0.2316
      6 O         140.3557  143.1785  160.0634 O.3     1  UNL1       -0.3268
      7 C         139.9994  144.1360  158.9651 C.3     1  UNL1        0.1771
      8 C         140.9107  145.3228  159.0709 C.3     1  UNL1        0.1771
      9 O         141.8302  145.0988  160.2347 O.3     1  UNL1       -0.3268
     10 C         141.1443  142.4484  161.4615 C.ar    1  UNL1        0.0487
     11 C         140.1135  141.4167  161.1106 C.ar    1  UNL1        0.0209
     12 C         140.0022  140.1609  161.9236 C.ar    1  UNL1        0.0824
     13 N         138.9715  139.1293  161.5727 N.ar    1  UNL1       -0.2438
     14 C         138.8602  137.8736  162.3856 C.ar    1  UNL1        0.1001
     15 C         139.7797  137.6496  163.5494 C.ar    1  UNL1        0.0353
     16 C         140.8105  138.6813  163.9003 C.ar    1  UNL1        0.0513
     17 C         140.9217  139.9369  163.0873 C.ar    1  UNL1        0.0324
     18 C         141.9525  140.9687  163.4382 C.ar    1  UNL1        0.0209
     19 C         142.0638  142.2244  162.6252 C.ar    1  UNL1        0.1066
     20 N         141.7299  138.4573  165.0640 N.pl3   1  UNL1       -0.3124
     21 H         142.5238  137.8842  164.9609 H       1  UNL1        0.1522
     22 C         141.4399  139.1064  166.3848 C.ar    1  UNL1        0.0499
     23 C         140.0555  139.5952  166.6923 C.ar    1  UNL1        0.0152
     24 C         139.7655  140.2443  168.0131 C.ar    1  UNL1        0.0093
     25 C         140.8598  140.4047  169.0264 C.ar    1  UNL1        0.0486
     26 S         140.8736  141.0002  170.4030 S.2     1  UNL1       -0.0645
     27 C         142.2665  140.8794  170.9463 C.ar    1  UNL1        0.1345
     28 N         143.1136  140.2093  169.9055 N.ar    1  UNL1       -0.2362
     29 C         142.2442  139.9159  168.7189 C.ar    1  UNL1        0.0892
     30 C         142.5342  139.2667  167.3981 C.ar    1  UNL1        0.0342
@<TRIPOS>BOND
     1     1     2    2
     2     2     3    2
     3     2     4    1
     4     4     5    1
     5     5     6    1
     6     6     7    1
     7     7     8    1
     8     8     9    1
     9     5    10    1
    10    10    11   ar
    11    11    12   ar
    12    12    13   ar
    13    13    14   ar
    14    14    15   ar
    15    15    16   ar
    16    16    20    1
    17    20    22    1
    18    22    23   ar
    19    23    24   ar
    20    24    25   ar
    21    25    26   ar
    22    26    27   ar
    23    27    28   ar
    24    28    29   ar
    25    29    30   ar
    26    16    17   ar
    27    17    18   ar
    28    18    19   ar
    29    19     2    1
    30     9     5    1
    31    19    10   ar
    32    17    12   ar
    33    30    22   ar
    34    29    25   ar
    35    20    21    1
@<TRIPOS>MOLECULE
*****
 30 35 0 0 0
SMALL
GASTEIGER

@<TRIPOS>ATOM
      1 O         137.2497  138.4159  166.8577 O.2     1  UNL1       -0.1685
      2 S         138.6572  138.7999  166.5090 S.O2    1  UNL1        0.0138
      3 O         138.3982  138.0056  165.2633 O.2     1  UNL1       -0.1685
      4 C         138.6219  139.5139  167.8277 C.3     1  UNL1        0.2163
      5 C         139.9535  140.1733  168.0336 C.3     1  UNL1        0.2316
      6 O         141.2850  140.8325  168.2394 O.3     1  UNL1       -0.3268
      7 C         141.2497  141.5466  169.5581 C.3     1  UNL1        0.1771
      8 C         139.8964  141.3286  170.1672 C.3     1  UNL1        0.1771
      9 O         139.0953  140.4799  169.2250 O.3     1  UNL1       -0.3268
     10 C         140.8116  139.8666  166.8421 C.ar    1  UNL1        0.0487
     11 C         142.2191  140.2507  166.4934 C.ar    1  UNL1        0.0209
     12 C         142.8254  139.7859  165.2025 C.ar    1  UNL1        0.0824
     13 N         144.2328  140.1700  164.8539 N.ar    1  UNL1       -0.2438
     14 C         144.8391  139.7052  163.5630 C.ar    1  UNL1        0.1001
     15 C         144.0380  138.8564  162.6208 C.ar    1  UNL1        0.0353
     16 C         142.6306  138.4724  162.9694 C.ar    1  UNL1        0.0513
     17 C         142.0243  138.9372  164.2603 C.ar    1  UNL1        0.0324
     18 C         140.6168  138.5531  164.6090 C.ar    1  UNL1        0.0209
     19 C         140.0105  139.0179  165.8999 C.ar    1  UNL1        0.1066
     20 N         141.8294  137.6236  162.0272 N.pl3   1  UNL1       -0.3124
     21 H         141.6922  136.6682  162.2209 H       1  UNL1        0.1522
     22 C         141.2374  138.2306  160.7899 C.ar    1  UNL1        0.0499
     23 C         142.0392  138.2843  159.5233 C.ar    1  UNL1        0.0152
     24 C         141.4472  138.8912  158.2860 C.ar    1  UNL1        0.0093
     25 C         140.0532  139.4445  158.3152 C.ar    1  UNL1        0.0486
     26 S         139.2106  140.0981  157.2604 S.2     1  UNL1       -0.0645
     27 C         137.8878  140.4484  157.8750 C.ar    1  UNL1        0.1345
     28 N         137.9131  140.0113  159.3097 N.ar    1  UNL1       -0.2362
     29 C         139.2514  139.3908  159.5817 C.ar    1  UNL1        0.0892
     30 C         139.8434  138.7838  160.8191 C.ar    1  UNL1        0.0342
@<TRIPOS>BOND
     1     1     2    2
     2     2     3    2
     3     2     4    1
     4     4     5    1
     5     5     6    1
     6     6     7    1
     7     7     8    1
     8     8     9    1
     9     5    10    1
    10    10    11   ar
    11    11    12   ar
    12    12    13   ar
    13    13    14   ar
    14    14    15   ar
    15    15    16   ar
    16    16    20    1
    17    20    22    1
    18    22    23   ar
    19    23    24   ar
    20    24    25   ar
    21    25    26   ar
    22    26    27   ar
    23    27    28   ar
    24    28    29   ar
    25    29    30   ar
    26    16    17   ar
    27    17    18   ar
    28    18    19   ar
    29    19     2    1
    30     9     5    1
    31    19    10   ar
    32    17    12   ar
    33    30    22   ar
    34    29    25   ar
    35    20    21    1
@<TRIPOS>MOLECULE
*****
 30 35 0 0 0
SMALL
GASTEIGER

@<TRIPOS>ATOM
      1 O         143.6073  144.5712  162.1602 O.2     1  UNL1       -0.1685
      2 S         142.9046  143.2486  162.0776 S.O2    1  UNL1        0.0138
      3 O         142.3018  143.6650  163.3865 O.2     1  UNL1       -0.1685
      4 C         143.6544  143.1087  160.7860 C.3     1  UNL1        0.2163
      5 C         143.2891  141.7866  160.1788 C.3     1  UNL1        0.2316
      6 O         142.9237  140.4645  159.5716 O.3     1  UNL1       -0.3268
      7 C         143.6735  140.3247  158.2800 C.3     1  UNL1        0.1771
      8 C         144.5023  141.5603  158.0889 C.3     1  UNL1        0.1771
      9 O         144.2647  142.4638  159.2625 O.3     1  UNL1       -0.3268
     10 C         142.3135  141.1095  161.0952 C.ar    1  UNL1        0.0487
     11 C         141.6108  139.7868  161.0126 C.ar    1  UNL1        0.0209
     12 C         140.6704  139.3677  162.1036 C.ar    1  UNL1        0.0824
     13 N         139.9678  138.0451  162.0210 N.ar    1  UNL1       -0.2438
     14 C         139.0275  137.6260  163.1119 C.ar    1  UNL1        0.1001
     15 C         138.7899  138.5295  164.2854 C.ar    1  UNL1        0.0353
     16 C         139.4926  139.8522  164.3680 C.ar    1  UNL1        0.0513
     17 C         140.4328  140.2712  163.2771 C.ar    1  UNL1        0.0324
     18 C         141.1356  141.5939  163.3596 C.ar    1  UNL1        0.0209
     19 C         142.0759  142.0130  162.2687 C.ar    1  UNL1        0.1066
     20 N         139.2550  140.7557  165.5416 N.pl3   1  UNL1       -0.3124
     21 H         138.4219  141.2770  165.6007 H       1  UNL1        0.1522
     22 C         140.2866  140.8650  166.6249 C.ar    1  UNL1        0.0499
     23 C         141.2927  139.7689  166.8159 C.ar    1  UNL1        0.0152
     24 C         142.3244  139.8783  167.8993 C.ar    1  UNL1        0.0093
     25 C         142.3500  141.0837  168.7916 C.ar    1  UNL1        0.0486
     26 S         143.2415  141.4668  169.9354 S.2     1  UNL1       -0.0645
     27 C         142.7864  142.7999  170.4514 C.ar    1  UNL1        0.1345
     28 N         141.6137  143.2404  169.6264 N.ar    1  UNL1       -0.2362
     29 C         141.3440  142.1798  168.6006 C.ar    1  UNL1        0.0892
     30 C         140.3123  142.0705  167.5172 C.ar    1  UNL1        0.0342
@<TRIPOS>BOND
     1     1     2    2
     2     2     3    2
     3     2     4    1
     4     4     5    1
     5     5     6    1
     6     6     7    1
     7     7     8    1
     8     8     9    1
     9     5    10    1
    10    10    11   ar
    11    11    12   ar
    12    12    13   ar
    13    13    14   ar
    14    14    15   ar
    15    15    16   ar
    16    16    20    1
    17    20    22    1
    18    22    23   ar
    19    23    24   ar
    20    24    25   ar
    21    25    26   ar
    22    26    27   ar
    23    27    28   ar
    24    28    29   ar
    25    29    30   ar
    26    16    17   ar
    27    17    18   ar
    28    18    19   ar
    29    19     2    1
    30     9     5    1
    31    19    10   ar
    32    17    12   ar
    33    30    22   ar
    34    29    25   ar
    35    20    21    1
@<TRIPOS>MOLECULE
*****
 30 35 0 0 0
SMALL
GASTEIGER

@<TRIPOS>ATOM
      1 O         138.4699  138.0563  165.3290 O.2     1  UNL1       -0.1685
      2 S         139.5207  139.0833  165.6307 S.O2    1  UNL1        0.0138
      3 O         139.9542  138.8257  164.2181 O.2     1  UNL1       -0.1685
      4 C         138.8674  139.1261  166.9803 C.3     1  UNL1        0.2163
      5 C         139.6052  140.1258  167.8209 C.3     1  UNL1        0.2316
      6 O         140.3429  141.1255  168.6613 O.3     1  UNL1       -0.3268
      7 C         139.6897  141.1683  170.0109 C.3     1  UNL1        0.1771
      8 C         138.5482  140.1951  170.0046 C.3     1  UNL1        0.1771
      9 O         138.4960  139.5508  168.6510 O.3     1  UNL1       -0.3268
     10 C         140.7144  140.7008  166.9906 C.ar    1  UNL1        0.0487
     11 C         141.7651  141.7278  167.2924 C.ar    1  UNL1        0.0209
     12 C         142.7637  142.1105  166.2405 C.ar    1  UNL1        0.0824
     13 N         143.8145  143.1375  166.5422 N.ar    1  UNL1       -0.2438
     14 C         144.8131  143.5202  165.4904 C.ar    1  UNL1        0.1001
     15 C         144.7608  142.8759  164.1368 C.ar    1  UNL1        0.0353
     16 C         143.7101  141.8489  163.8351 C.ar    1  UNL1        0.0513
     17 C         142.7115  141.4662  164.8869 C.ar    1  UNL1        0.0324
     18 C         141.6607  140.4391  164.5852 C.ar    1  UNL1        0.0209
     19 C         140.6621  140.0564  165.6371 C.ar    1  UNL1        0.1066
     20 N         143.6578  141.2046  162.4815 N.pl3   1  UNL1       -0.3124
     21 H         143.8358  140.2408  162.3879 H       1  UNL1        0.1522
     22 C         143.3345  142.0286  161.2706 C.ar    1  UNL1        0.0499
     23 C         144.0232  141.7493  159.9676 C.ar    1  UNL1        0.0152
     24 C         143.6999  142.5734  158.7567 C.ar    1  UNL1        0.0093
     25 C         142.6878  143.6767  158.8487 C.ar    1  UNL1        0.0486
     26 S         142.1675  144.6486  157.8316 S.2     1  UNL1       -0.0645
     27 C         141.1570  145.5286  158.5060 C.ar    1  UNL1        0.1345
     28 N         141.0530  145.1005  159.9399 N.ar    1  UNL1       -0.2362
     29 C         141.9991  143.9559  160.1516 C.ar    1  UNL1        0.0892
     30 C         142.3224  143.1319  161.3626 C.ar    1  UNL1        0.0342
@<TRIPOS>BOND
     1     1     2    2
     2     2     3    2
     3     2     4    1
     4     4     5    1
     5     5     6    1
     6     6     7    1
     7     7     8    1
     8     8     9    1
     9     5    10    1
    10    10    11   ar
    11    11    12   ar
    12    12    13   ar
    13    13    14   ar
    14    14    15   ar
    15    15    16   ar
    16    16    20    1
    17    20    22    1
    18    22    23   ar
    19    23    24   ar
    20    24    25   ar
    21    25    26   ar
    22    26    27   ar
    23    27    28   ar
    24    28    29   ar
    25    29    30   ar
    26    16    17   ar
    27    17    18   ar
    28    18    19   ar
    29    19     2    1
    30     9     5    1
    31    19    10   ar
    32    17    12   ar
    33    30    22   ar
    34    29    25   ar
    35    20    21    1
