@<TRIPOS>MOLECULE
*****
 37 39 0 0 0
SMALL
GASTEIGER

@<TRIPOS>ATOM
      1 C         138.7480  139.2073  166.1470 C.ar    1  UNL1        0.1386
      2 C         138.2602  140.3392  165.2920 C.ar    1  UNL1        0.0383
      3 C         138.3000  140.2212  163.7972 C.ar    1  UNL1        0.0233
      4 C         138.8275  138.9713  163.1573 C.ar    1  UNL1        0.1255
      5 C         139.3153  137.8394  164.0122 C.ar    1  UNL1        0.0233
      6 C         139.2755  137.9574  165.5071 C.ar    1  UNL1        0.0383
      7 S         138.8672  138.8532  161.6625 S.O2    1  UNL1        0.0768
      8 O         137.4568  138.3429  161.6653 O.2     1  UNL1       -0.1498
      9 O         140.2777  139.3635  161.6597 O.2     1  UNL1       -0.1498
     10 N         138.9069  138.7351  160.1676 N.am    1  UNL1       -0.1690
     11 C         138.4555  139.8819  159.3125 C.2     1  UNL1        0.3231
     12 O         137.9644  141.1467  159.9522 O.2     1  UNL1       -0.2509
     13 N         138.4952  139.7638  157.8177 N.am    1  UNL1       -0.2671
     14 H         139.2293  137.9050  159.7478 H       1  UNL1        0.1781
     15 H         138.8175  138.9337  157.3979 H       1  UNL1        0.1565
     16 C         138.0438  140.9105  156.9626 C.ar    1  UNL1        0.0516
     17 C         136.6390  140.9475  156.4381 C.ar    1  UNL1        0.0147
     18 C         136.1876  142.0942  155.5830 C.ar    1  UNL1        0.0013
     19 C         137.1410  143.2040  155.2523 C.ar    1  UNL1        0.0001
     20 C         138.5458  143.1670  155.7768 C.ar    1  UNL1        0.0013
     21 C         138.9972  142.0203  156.6319 C.ar    1  UNL1        0.0147
     22 O         138.7083  139.3254  167.6418 O.3     1  UNL1       -0.4755
     23 C         139.8972  139.8600  168.3838 C.3     1  UNL1        0.2054
     24 C         139.7566  141.0785  169.2473 C.3     1  UNL1        0.0488
     25 C         140.4191  142.3629  168.8456 C.3     1  UNL1        0.0212
     26 C         141.2434  142.4222  167.5938 C.3     1  UNL1        0.0722
     27 C         139.4263  143.9573  163.7739 C.3     1  UNL1        0.1018
     28 C         138.8263  144.3366  165.0952 C.3     1  UNL1        0.0285
     29 C         139.4320  143.8249  166.3685 C.3     1  UNL1        0.0727
     30 N         140.6377  142.9339  166.3205 N.3     1  UNL1       -0.2727
     31 C         141.2377  142.5545  164.9991 C.3     1  UNL1        0.0727
     32 C         140.6320  143.0662  163.7258 C.3     1  UNL1        0.0285
     33 C         138.8207  144.4690  162.5005 C.2     1  UNL1        0.3165
     34 O         137.8054  143.6429  161.7680 O.2     1  UNL1       -0.2501
     35 O         139.2302  145.8068  161.9598 O.3     1  UNL1       -0.4485
     36 C         141.1284  144.8110  160.4917 C.3     1  UNL1        0.0513
     37 C         140.1180  145.8883  160.7535 C.3     1  UNL1        0.2086
@<TRIPOS>BOND
     1    36    37    1
     2    37    35    1
     3    35    33    1
     4    33    34    2
     5    33    27    1
     6    27    28    1
     7    28    29    1
     8    29    30    1
     9    30    26    1
    10    26    25    1
    11    25    24    1
    12    24    23    1
    13    23    22    1
    14    22     1    1
    15     1     2   ar
    16     2     3   ar
    17     3     4   ar
    18     4     7    1
    19     7     8    2
    20     7     9    2
    21     7    10    1
    22    10    11   am
    23    11    12    2
    24    11    13   am
    25    13    16    1
    26    16    17   ar
    27    17    18   ar
    28    18    19   ar
    29    19    20   ar
    30    20    21   ar
    31     4     5   ar
    32     5     6   ar
    33    30    31    1
    34    31    32    1
    35    32    27    1
    36     6     1   ar
    37    21    16   ar
    38    10    14    1
    39    13    15    1
@<TRIPOS>MOLECULE
*****
 37 39 0 0 0
SMALL
GASTEIGER

@<TRIPOS>ATOM
      1 C         139.0158  138.9202  160.1826 C.ar    1  UNL1        0.1386
      2 C         137.9617  139.7949  160.7941 C.ar    1  UNL1        0.0383
      3 C         137.7697  139.8099  162.2816 C.ar    1  UNL1        0.0233
      4 C         138.6318  138.9501  163.1578 C.ar    1  UNL1        0.1255
      5 C         139.6858  138.0753  162.5464 C.ar    1  UNL1        0.0233
      6 C         139.8778  138.0604  161.0588 C.ar    1  UNL1        0.0383
      7 S         138.4398  138.9650  164.6454 S.O2    1  UNL1        0.0768
      8 O         137.8393  140.3365  164.5541 O.2     1  UNL1       -0.1498
      9 O         139.0403  137.5935  164.7366 O.2     1  UNL1       -0.1498
     10 N         138.2478  138.9800  166.1330 N.am    1  UNL1       -0.1690
     11 C         139.2487  139.6703  167.0115 C.2     1  UNL1        0.3231
     12 O         140.4416  140.3456  166.4023 O.2     1  UNL1       -0.2509
     13 N         139.0567  139.6853  168.4990 N.am    1  UNL1       -0.2671
     14 H         137.4649  138.5368  166.5328 H       1  UNL1        0.1781
     15 H         138.2738  139.2421  168.8988 H       1  UNL1        0.1565
     16 C         140.0576  140.3756  169.3775 C.ar    1  UNL1        0.0516
     17 C         141.3565  139.7019  169.7077 C.ar    1  UNL1        0.0147
     18 C         142.3574  140.3922  170.5861 C.ar    1  UNL1        0.0013
     19 C         142.0594  141.7562  171.1344 C.ar    1  UNL1        0.0001
     20 C         140.7606  142.4299  170.8042 C.ar    1  UNL1        0.0013
     21 C         139.7597  141.7396  169.9258 C.ar    1  UNL1        0.0147
     22 O         139.2078  138.9052  158.6951 O.3     1  UNL1       -0.4755
     23 C         139.0512  140.1712  157.9059 C.3     1  UNL1        0.2054
     24 C         140.2458  140.7999  157.2518 C.3     1  UNL1        0.0488
     25 C         140.8461  142.0479  157.8280 C.3     1  UNL1        0.0212
     26 C         140.4585  142.5003  159.2046 C.3     1  UNL1        0.0722
     27 C         142.3443  140.5888  162.8156 C.3     1  UNL1        0.1018
     28 C         142.8612  140.2724  161.4435 C.3     1  UNL1        0.0285
     29 C         142.2326  140.9096  160.2398 C.3     1  UNL1        0.0727
     30 N         141.0871  141.8632  160.4082 N.3     1  UNL1       -0.2727
     31 C         140.5702  142.1796  161.7803 C.3     1  UNL1        0.0727
     32 C         141.1988  141.5424  162.9840 C.3     1  UNL1        0.0285
     33 C         142.9729  139.9516  164.0193 C.2     1  UNL1        0.3165
     34 O         142.7852  138.4858  164.2760 O.2     1  UNL1       -0.2501
     35 O         143.7893  140.7803  164.9662 O.3     1  UNL1       -0.4485
     36 C         145.8169  141.6533  163.5963 C.3     1  UNL1        0.0513
     37 C         144.6108  141.9227  164.4464 C.3     1  UNL1        0.2086
@<TRIPOS>BOND
     1    36    37    1
     2    37    35    1
     3    35    33    1
     4    33    34    2
     5    33    27    1
     6    27    28    1
     7    28    29    1
     8    29    30    1
     9    30    26    1
    10    26    25    1
    11    25    24    1
    12    24    23    1
    13    23    22    1
    14    22     1    1
    15     1     2   ar
    16     2     3   ar
    17     3     4   ar
    18     4     7    1
    19     7     8    2
    20     7     9    2
    21     7    10    1
    22    10    11   am
    23    11    12    2
    24    11    13   am
    25    13    16    1
    26    16    17   ar
    27    17    18   ar
    28    18    19   ar
    29    19    20   ar
    30    20    21   ar
    31     4     5   ar
    32     5     6   ar
    33    30    31    1
    34    31    32    1
    35    32    27    1
    36     6     1   ar
    37    21    16   ar
    38    10    14    1
    39    13    15    1
@<TRIPOS>MOLECULE
*****
 37 39 0 0 0
SMALL
GASTEIGER

@<TRIPOS>ATOM
      1 C         139.0171  139.2893  160.1267 C.ar    1  UNL1        0.1386
      2 C         138.4029  140.4415  160.8652 C.ar    1  UNL1        0.0383
      3 C         138.2182  140.3666  162.3519 C.ar    1  UNL1        0.0233
      4 C         138.6478  139.1396  163.1002 C.ar    1  UNL1        0.1255
      5 C         139.2620  137.9875  162.3618 C.ar    1  UNL1        0.0233
      6 C         139.4467  138.0623  160.8750 C.ar    1  UNL1        0.0383
      7 S         138.4632  139.0648  164.5869 S.O2    1  UNL1        0.0768
      8 O         139.0763  137.6959  164.5941 O.2     1  UNL1       -0.1498
      9 O         137.8500  140.4337  164.5796 O.2     1  UNL1       -0.1498
     10 N         138.2785  138.9899  166.0736 N.am    1  UNL1       -0.1690
     11 C         139.2307  139.7065  166.9846 C.2     1  UNL1        0.3231
     12 O         140.3674  140.4980  166.4089 O.2     1  UNL1       -0.2509
     13 N         139.0461  139.6316  168.4713 N.am    1  UNL1       -0.2671
     14 H         137.5325  138.4704  166.4515 H       1  UNL1        0.1781
     15 H         138.3000  139.1122  168.8492 H       1  UNL1        0.1565
     16 C         139.9982  140.3482  169.3823 C.ar    1  UNL1        0.0516
     17 C         139.6523  141.7100  169.9076 C.ar    1  UNL1        0.0147
     18 C         140.6044  142.4266  170.8186 C.ar    1  UNL1        0.0013
     19 C         141.9024  141.7814  171.2044 C.ar    1  UNL1        0.0001
     20 C         142.2483  140.4197  170.6791 C.ar    1  UNL1        0.0013
     21 C         141.2962  139.7031  169.7681 C.ar    1  UNL1        0.0147
     22 O         139.2018  139.3641  158.6401 O.3     1  UNL1       -0.4755
     23 C         139.8596  138.2321  157.9081 C.3     1  UNL1        0.2054
     24 C         141.2810  138.3626  157.4468 C.3     1  UNL1        0.0488
     25 C         142.1516  139.4523  157.9988 C.3     1  UNL1        0.0212
     26 C         142.8170  139.2778  159.3317 C.3     1  UNL1        0.0722
     27 C         141.6405  141.9001  162.7943 C.3     1  UNL1        0.1018
     28 C         141.5019  142.4063  161.3892 C.3     1  UNL1        0.0285
     29 C         141.8941  141.5322  160.2350 C.3     1  UNL1        0.0727
     30 N         142.4248  140.1519  160.4859 N.3     1  UNL1       -0.2727
     31 C         142.5635  139.6457  161.8911 C.3     1  UNL1        0.0727
     32 C         142.1713  140.5198  163.0453 C.3     1  UNL1        0.0285
     33 C         141.2484  142.7742  163.9485 C.2     1  UNL1        0.3165
     34 O         142.3028  143.3405  164.8526 O.2     1  UNL1       -0.2501
     35 O         139.8018  143.0820  164.1986 O.3     1  UNL1       -0.4485
     36 C         137.7093  144.2078  163.1476 C.3     1  UNL1        0.0513
     37 C         139.1591  144.2605  163.5292 C.3     1  UNL1        0.2086
@<TRIPOS>BOND
     1    36    37    1
     2    37    35    1
     3    35    33    1
     4    33    34    2
     5    33    27    1
     6    27    28    1
     7    28    29    1
     8    29    30    1
     9    30    26    1
    10    26    25    1
    11    25    24    1
    12    24    23    1
    13    23    22    1
    14    22     1    1
    15     1     2   ar
    16     2     3   ar
    17     3     4   ar
    18     4     7    1
    19     7     8    2
    20     7     9    2
    21     7    10    1
    22    10    11   am
    23    11    12    2
    24    11    13   am
    25    13    16    1
    26    16    17   ar
    27    17    18   ar
    28    18    19   ar
    29    19    20   ar
    30    20    21   ar
    31     4     5   ar
    32     5     6   ar
    33    30    31    1
    34    31    32    1
    35    32    27    1
    36     6     1   ar
    37    21    16   ar
    38    10    14    1
    39    13    15    1
@<TRIPOS>MOLECULE
*****
 37 39 0 0 0
SMALL
GASTEIGER

@<TRIPOS>ATOM
      1 C         138.8252  139.1734  160.0886 C.ar    1  UNL1        0.1386
      2 C         139.5245  138.1103  160.8828 C.ar    1  UNL1        0.0383
      3 C         139.3757  138.0688  162.3748 C.ar    1  UNL1        0.0233
      4 C         138.5275  139.0904  163.0726 C.ar    1  UNL1        0.1255
      5 C         137.8282  140.1535  162.2785 C.ar    1  UNL1        0.0233
      6 C         137.9770  140.1950  160.7864 C.ar    1  UNL1        0.0383
      7 S         138.3787  139.0489  164.5646 S.O2    1  UNL1        0.0768
      8 O         137.8598  140.4563  164.5520 O.2     1  UNL1       -0.1498
      9 O         138.8976  137.6416  164.5772 O.2     1  UNL1       -0.1498
     10 N         138.2299  139.0075  166.0567 N.am    1  UNL1       -0.1690
     11 C         139.2356  139.6970  166.9302 C.2     1  UNL1        0.3231
     12 O         140.3903  140.4280  166.3116 O.2     1  UNL1       -0.2509
     13 N         139.0868  139.6556  168.4222 N.am    1  UNL1       -0.2671
     14 H         137.4720  138.5278  166.4627 H       1  UNL1        0.1781
     15 H         138.3290  139.1759  168.8281 H       1  UNL1        0.1565
     16 C         140.0926  140.3451  169.2956 C.ar    1  UNL1        0.0516
     17 C         139.8440  141.7490  169.7616 C.ar    1  UNL1        0.0147
     18 C         140.8498  142.4385  170.6351 C.ar    1  UNL1        0.0013
     19 C         142.1042  141.7241  171.0426 C.ar    1  UNL1        0.0001
     20 C         142.3528  140.3202  170.5766 C.ar    1  UNL1        0.0013
     21 C         141.3470  139.6307  169.7031 C.ar    1  UNL1        0.0147
     22 O         138.9740  139.2149  158.5966 O.3     1  UNL1       -0.4755
     23 C         139.8327  138.2013  157.9000 C.3     1  UNL1        0.2054
     24 C         141.0014  138.6497  157.0734 C.3     1  UNL1        0.0488
     25 C         141.3843  140.0996  157.0402 C.3     1  UNL1        0.0212
     26 C         142.5575  140.5841  157.8394 C.3     1  UNL1        0.0722
     27 C         142.8673  139.5809  162.2152 C.3     1  UNL1        0.1018
     28 C         142.0460  140.7548  161.7712 C.3     1  UNL1        0.0285
     29 C         141.9427  141.0892  160.3126 C.3     1  UNL1        0.0727
     30 N         142.6608  140.2497  159.2980 N.3     1  UNL1       -0.2727
     31 C         143.4821  139.0757  159.7420 C.3     1  UNL1        0.0727
     32 C         143.5854  138.7413  161.2006 C.3     1  UNL1        0.0285
     33 C         142.9706  139.2465  163.6738 C.2     1  UNL1        0.3165
     34 O         142.2038  138.0850  164.2331 O.2     1  UNL1       -0.2501
     35 O         143.8407  140.0736  164.5731 O.3     1  UNL1       -0.4485
     36 C         145.6006  141.7444  163.6449 C.3     1  UNL1        0.0513
     37 C         145.2525  140.3840  164.1726 C.3     1  UNL1        0.2086
@<TRIPOS>BOND
     1    36    37    1
     2    37    35    1
     3    35    33    1
     4    33    34    2
     5    33    27    1
     6    27    28    1
     7    28    29    1
     8    29    30    1
     9    30    26    1
    10    26    25    1
    11    25    24    1
    12    24    23    1
    13    23    22    1
    14    22     1    1
    15     1     2   ar
    16     2     3   ar
    17     3     4   ar
    18     4     7    1
    19     7     8    2
    20     7     9    2
    21     7    10    1
    22    10    11   am
    23    11    12    2
    24    11    13   am
    25    13    16    1
    26    16    17   ar
    27    17    18   ar
    28    18    19   ar
    29    19    20   ar
    30    20    21   ar
    31     4     5   ar
    32     5     6   ar
    33    30    31    1
    34    31    32    1
    35    32    27    1
    36     6     1   ar
    37    21    16   ar
    38    10    14    1
    39    13    15    1
@<TRIPOS>MOLECULE
*****
 37 39 0 0 0
SMALL
GASTEIGER

@<TRIPOS>ATOM
      1 C         143.7528  139.3459  159.7867 C.ar    1  UNL1        0.1386
      2 C         144.0828  140.5522  160.6150 C.ar    1  UNL1        0.0383
      3 C         144.0190  140.4746  162.1116 C.ar    1  UNL1        0.0233
      4 C         143.6251  139.1908  162.7800 C.ar    1  UNL1        0.1255
      5 C         143.2951  137.9846  161.9517 C.ar    1  UNL1        0.0233
      6 C         143.3590  138.0621  160.4550 C.ar    1  UNL1        0.0383
      7 S         143.5612  139.1132  164.2766 S.O2    1  UNL1        0.0768
      8 O         144.7488  140.0243  164.3745 O.2     1  UNL1       -0.1498
      9 O         142.3737  138.2022  164.1786 O.2     1  UNL1       -0.1498
     10 N         143.4974  139.0357  165.7732 N.am    1  UNL1       -0.1690
     11 C         142.6271  139.9891  166.5372 C.2     1  UNL1        0.3231
     12 O         141.8207  141.0201  165.8045 O.2     1  UNL1       -0.2509
     13 N         142.5632  139.9116  168.0338 N.am    1  UNL1       -0.2671
     14 H         144.0266  138.3590  166.2541 H       1  UNL1        0.1781
     15 H         143.0925  139.2349  168.5147 H       1  UNL1        0.1565
     16 C         141.6930  140.8651  168.7977 C.ar    1  UNL1        0.0516
     17 C         140.3372  140.4298  169.2691 C.ar    1  UNL1        0.0147
     18 C         139.4669  141.3832  170.0331 C.ar    1  UNL1        0.0013
     19 C         139.9525  142.7720  170.3256 C.ar    1  UNL1        0.0001
     20 C         141.3083  143.2072  169.8543 C.ar    1  UNL1        0.0013
     21 C         142.1786  142.2538  169.0903 C.ar    1  UNL1        0.0147
     22 O         143.8167  139.4235  158.2901 O.3     1  UNL1       -0.4755
     23 C         142.6842  140.0378  157.5219 C.3     1  UNL1        0.2054
     24 C         141.4373  139.2454  157.2620 C.3     1  UNL1        0.0488
     25 C         140.2220  139.4583  158.1150 C.3     1  UNL1        0.0212
     26 C         139.9646  138.5630  159.2906 C.3     1  UNL1        0.0722
     27 C         138.8003  140.3381  163.2584 C.3     1  UNL1        0.1018
     28 C         138.0063  139.2032  162.6825 C.3     1  UNL1        0.0285
     29 C         138.3944  138.6115  161.3599 C.3     1  UNL1        0.0727
     30 N         139.5765  139.1547  160.6132 N.3     1  UNL1       -0.2727
     31 C         140.3705  140.2895  161.1891 C.3     1  UNL1        0.0727
     32 C         139.9823  140.8812  162.5117 C.3     1  UNL1        0.0285
     33 C         138.4121  140.9298  164.5810 C.2     1  UNL1        0.3165
     34 O         138.6376  140.1540  165.8448 O.2     1  UNL1       -0.2501
     35 O         137.7985  142.2972  164.6398 O.3     1  UNL1       -0.4485
     36 C         139.6882  143.5817  165.8765 C.3     1  UNL1        0.0513
     37 C         138.6748  143.5074  164.7731 C.3     1  UNL1        0.2086
@<TRIPOS>BOND
     1    36    37    1
     2    37    35    1
     3    35    33    1
     4    33    34    2
     5    33    27    1
     6    27    28    1
     7    28    29    1
     8    29    30    1
     9    30    26    1
    10    26    25    1
    11    25    24    1
    12    24    23    1
    13    23    22    1
    14    22     1    1
    15     1     2   ar
    16     2     3   ar
    17     3     4   ar
    18     4     7    1
    19     7     8    2
    20     7     9    2
    21     7    10    1
    22    10    11   am
    23    11    12    2
    24    11    13   am
    25    13    16    1
    26    16    17   ar
    27    17    18   ar
    28    18    19   ar
    29    19    20   ar
    30    20    21   ar
    31     4     5   ar
    32     5     6   ar
    33    30    31    1
    34    31    32    1
    35    32    27    1
    36     6     1   ar
    37    21    16   ar
    38    10    14    1
    39    13    15    1
@<TRIPOS>MOLECULE
*****
 37 39 0 0 0
SMALL
GASTEIGER

@<TRIPOS>ATOM
      1 C         138.5329  139.4579  159.8630 C.ar    1  UNL1        0.1386
      2 C         139.3666  138.4249  160.5616 C.ar    1  UNL1        0.0383
      3 C         139.4352  138.4045  162.0599 C.ar    1  UNL1        0.0233
      4 C         138.6702  139.4171  162.8596 C.ar    1  UNL1        0.1255
      5 C         137.8365  140.4500  162.1610 C.ar    1  UNL1        0.0233
      6 C         137.7679  140.4704  160.6626 C.ar    1  UNL1        0.0383
      7 S         138.7388  139.3967  164.3578 S.O2    1  UNL1        0.0768
      8 O         137.8497  140.6034  164.4149 O.2     1  UNL1       -0.1498
      9 O         139.6278  138.1900  164.3007 O.2     1  UNL1       -0.1498
     10 N         138.8074  139.3763  165.8562 N.am    1  UNL1       -0.1690
     11 C         139.7921  140.2512  166.5738 C.2     1  UNL1        0.3231
     12 O         140.7082  141.1463  165.7931 O.2     1  UNL1       -0.2509
     13 N         139.8607  140.2308  168.0721 N.am    1  UNL1       -0.2671
     14 H         138.2061  138.7888  166.3685 H       1  UNL1        0.1781
     15 H         139.2594  139.6433  168.5844 H       1  UNL1        0.1565
     16 C         140.8454  141.1057  168.7897 C.ar    1  UNL1        0.0516
     17 C         140.4388  142.4759  169.2449 C.ar    1  UNL1        0.0147
     18 C         141.4236  143.3507  169.9625 C.ar    1  UNL1        0.0013
     19 C         142.8148  142.8553  170.2250 C.ar    1  UNL1        0.0001
     20 C         143.2214  141.4852  169.7698 C.ar    1  UNL1        0.0013
     21 C         142.2367  140.6103  169.0521 C.ar    1  UNL1        0.0147
     22 O         138.4643  139.4783  158.3647 O.3     1  UNL1       -0.4755
     23 C         139.6635  139.0860  157.5536 C.3     1  UNL1        0.2054
     24 C         140.8177  140.0341  157.4145 C.3     1  UNL1        0.0488
     25 C         142.0220  139.8840  158.2961 C.3     1  UNL1        0.0212
     26 C         142.7693  141.0996  158.7583 C.3     1  UNL1        0.0722
     27 C         140.7513  144.0967  161.4407 C.3     1  UNL1        0.1018
     28 C         141.4838  144.5596  160.2163 C.3     1  UNL1        0.0285
     29 C         142.1565  143.5606  159.3222 C.3     1  UNL1        0.0727
     30 N         142.0966  142.0986  159.6524 N.3     1  UNL1       -0.2727
     31 C         141.3642  141.6357  160.8768 C.3     1  UNL1        0.0727
     32 C         140.6915  142.6347  161.7709 C.3     1  UNL1        0.0285
     33 C         140.0787  145.0957  162.3348 C.2     1  UNL1        0.3165
     34 O         139.0822  146.0610  161.7648 O.2     1  UNL1       -0.2501
     35 O         140.4025  145.1294  163.7990 O.3     1  UNL1       -0.4485
     36 C         138.0830  144.2428  164.5631 C.3     1  UNL1        0.0513
     37 C         139.5646  144.3523  164.7706 C.3     1  UNL1        0.2086
@<TRIPOS>BOND
     1    36    37    1
     2    37    35    1
     3    35    33    1
     4    33    34    2
     5    33    27    1
     6    27    28    1
     7    28    29    1
     8    29    30    1
     9    30    26    1
    10    26    25    1
    11    25    24    1
    12    24    23    1
    13    23    22    1
    14    22     1    1
    15     1     2   ar
    16     2     3   ar
    17     3     4   ar
    18     4     7    1
    19     7     8    2
    20     7     9    2
    21     7    10    1
    22    10    11   am
    23    11    12    2
    24    11    13   am
    25    13    16    1
    26    16    17   ar
    27    17    18   ar
    28    18    19   ar
    29    19    20   ar
    30    20    21   ar
    31     4     5   ar
    32     5     6   ar
    33    30    31    1
    34    31    32    1
    35    32    27    1
    36     6     1   ar
    37    21    16   ar
    38    10    14    1
    39    13    15    1
@<TRIPOS>MOLECULE
*****
 37 39 0 0 0
SMALL
GASTEIGER

@<TRIPOS>ATOM
      1 C         143.7988  139.3242  159.8972 C.ar    1  UNL1        0.1386
      2 C         144.1753  140.5257  160.7125 C.ar    1  UNL1        0.0383
      3 C         144.1080  140.4672  162.2098 C.ar    1  UNL1        0.0233
      4 C         143.6641  139.2071  162.8919 C.ar    1  UNL1        0.1255
      5 C         143.2876  138.0056  162.0767 C.ar    1  UNL1        0.0233
      6 C         143.3549  138.0642  160.5793 C.ar    1  UNL1        0.0383
      7 S         143.5968  139.1486  164.3892 S.O2    1  UNL1        0.0768
      8 O         142.4101  138.2355  164.3002 O.2     1  UNL1       -0.1498
      9 O         144.7835  140.0616  164.4783 O.2     1  UNL1       -0.1498
     10 N         143.5294  139.0900  165.8866 N.am    1  UNL1       -0.1690
     11 C         142.6624  140.0572  166.6368 C.2     1  UNL1        0.3231
     12 O         141.8628  141.0831  165.8895 O.2     1  UNL1       -0.2509
     13 N         142.5950  139.9987  168.1341 N.am    1  UNL1       -0.2671
     14 H         144.0542  138.4167  166.3770 H       1  UNL1        0.1781
     15 H         143.1198  139.3254  168.6245 H       1  UNL1        0.1565
     16 C         141.7280  140.9659  168.8842 C.ar    1  UNL1        0.0516
     17 C         142.2300  142.3476  169.1826 C.ar    1  UNL1        0.0147
     18 C         141.3630  143.3148  169.9327 C.ar    1  UNL1        0.0013
     19 C         139.9940  142.9005  170.3845 C.ar    1  UNL1        0.0001
     20 C         139.4920  141.5188  170.0862 C.ar    1  UNL1        0.0013
     21 C         140.3590  140.5516  169.3360 C.ar    1  UNL1        0.0147
     22 O         143.8661  139.3828  158.3999 O.3     1  UNL1       -0.4755
     23 C         142.7357  138.8403  157.5765 C.3     1  UNL1        0.2054
     24 C         141.7611  139.7793  156.9296 C.3     1  UNL1        0.0488
     25 C         140.4861  140.1389  157.6334 C.3     1  UNL1        0.0212
     26 C         140.3051  139.7916  159.0813 C.3     1  UNL1        0.0722
     27 C         141.0597  142.8954  162.2510 C.3     1  UNL1        0.1018
     28 C         141.2513  143.2396  160.8037 C.3     1  UNL1        0.0285
     29 C         140.9997  142.2050  159.7471 C.3     1  UNL1        0.0727
     30 N         140.5566  140.8262  160.1379 N.3     1  UNL1       -0.2727
     31 C         140.3651  140.4821  161.5852 C.3     1  UNL1        0.0727
     32 C         140.6166  141.5167  162.6418 C.3     1  UNL1        0.0285
     33 C         141.3112  143.9300  163.3076 C.2     1  UNL1        0.3165
     34 O         140.5438  143.8886  164.5957 O.2     1  UNL1       -0.2501
     35 O         142.3302  145.0061  163.0760 O.3     1  UNL1       -0.4485
     36 C         144.0974  143.6321  164.3949 C.3     1  UNL1        0.0513
     37 C         143.7432  144.8137  163.5414 C.3     1  UNL1        0.2086
@<TRIPOS>BOND
     1    36    37    1
     2    37    35    1
     3    35    33    1
     4    33    34    2
     5    33    27    1
     6    27    28    1
     7    28    29    1
     8    29    30    1
     9    30    26    1
    10    26    25    1
    11    25    24    1
    12    24    23    1
    13    23    22    1
    14    22     1    1
    15     1     2   ar
    16     2     3   ar
    17     3     4   ar
    18     4     7    1
    19     7     8    2
    20     7     9    2
    21     7    10    1
    22    10    11   am
    23    11    12    2
    24    11    13   am
    25    13    16    1
    26    16    17   ar
    27    17    18   ar
    28    18    19   ar
    29    19    20   ar
    30    20    21   ar
    31     4     5   ar
    32     5     6   ar
    33    30    31    1
    34    31    32    1
    35    32    27    1
    36     6     1   ar
    37    21    16   ar
    38    10    14    1
    39    13    15    1
@<TRIPOS>MOLECULE
*****
 37 39 0 0 0
SMALL
GASTEIGER

@<TRIPOS>ATOM
      1 C         143.7220  139.3723  159.8049 C.ar    1  UNL1        0.1386
      2 C         143.3009  138.0982  160.4753 C.ar    1  UNL1        0.0383
      3 C         143.2509  138.0194  161.9724 C.ar    1  UNL1        0.0233
      4 C         143.6219  139.2147  162.7991 C.ar    1  UNL1        0.1255
      5 C         144.0430  140.4888  162.1289 C.ar    1  UNL1        0.0233
      6 C         144.0930  140.5677  160.6317 C.ar    1  UNL1        0.0383
      7 S         143.5718  139.1360  164.2962 S.O2    1  UNL1        0.0768
      8 O         142.3390  138.2858  164.2102 O.2     1  UNL1       -0.1498
      9 O         144.8046  139.9861  164.3822 O.2     1  UNL1       -0.1498
     10 N         143.5217  139.0571  165.7933 N.am    1  UNL1       -0.1690
     11 C         142.6752  140.0238  166.5673 C.2     1  UNL1        0.3231
     12 O         141.8788  141.0693  165.8442 O.2     1  UNL1       -0.2509
     13 N         142.6250  139.9450  168.0644 N.am    1  UNL1       -0.2671
     14 H         144.0443  138.3710  166.2679 H       1  UNL1        0.1781
     15 H         143.1477  139.2589  168.5390 H       1  UNL1        0.1565
     16 C         141.7786  140.9117  168.8384 C.ar    1  UNL1        0.0516
     17 C         142.3074  142.2767  169.1654 C.ar    1  UNL1        0.0147
     18 C         141.4609  143.2434  169.9393 C.ar    1  UNL1        0.0013
     19 C         140.0856  142.8450  170.3863 C.ar    1  UNL1        0.0001
     20 C         139.5568  141.4800  170.0593 C.ar    1  UNL1        0.0013
     21 C         140.4033  140.5133  169.2854 C.ar    1  UNL1        0.0147
     22 O         143.7721  139.4511  158.3079 O.3     1  UNL1       -0.4755
     23 C         142.5905  139.9715  157.5443 C.3     1  UNL1        0.2054
     24 C         141.5257  139.0254  157.0740 C.3     1  UNL1        0.0488
     25 C         140.4429  138.5872  158.0152 C.3     1  UNL1        0.0212
     26 C         139.4323  139.5792  158.5097 C.3     1  UNL1        0.0722
     27 C         138.8849  140.2201  162.9301 C.3     1  UNL1        0.1018
     28 C         140.2079  140.5147  162.2877 C.3     1  UNL1        0.0285
     29 C         140.3904  140.3011  160.8142 C.3     1  UNL1        0.0727
     30 N         139.2498  139.7928  159.9831 N.3     1  UNL1       -0.2727
     31 C         137.9268  139.4981  160.6255 C.3     1  UNL1        0.0727
     32 C         137.7443  139.7118  162.0990 C.3     1  UNL1        0.0285
     33 C         138.7024  140.4337  164.4035 C.2     1  UNL1        0.3165
     34 O         138.2427  141.7660  164.9169 O.2     1  UNL1       -0.2501
     35 O         138.9797  139.3151  165.3635 O.3     1  UNL1       -0.4485
     36 C         137.5831  137.7074  166.8519 C.3     1  UNL1        0.0513
     37 C         138.0712  139.0902  166.5357 C.3     1  UNL1        0.2086
@<TRIPOS>BOND
     1    36    37    1
     2    37    35    1
     3    35    33    1
     4    33    34    2
     5    33    27    1
     6    27    28    1
     7    28    29    1
     8    29    30    1
     9    30    26    1
    10    26    25    1
    11    25    24    1
    12    24    23    1
    13    23    22    1
    14    22     1    1
    15     1     2   ar
    16     2     3   ar
    17     3     4   ar
    18     4     7    1
    19     7     8    2
    20     7     9    2
    21     7    10    1
    22    10    11   am
    23    11    12    2
    24    11    13   am
    25    13    16    1
    26    16    17   ar
    27    17    18   ar
    28    18    19   ar
    29    19    20   ar
    30    20    21   ar
    31     4     5   ar
    32     5     6   ar
    33    30    31    1
    34    31    32    1
    35    32    27    1
    36     6     1   ar
    37    21    16   ar
    38    10    14    1
    39    13    15    1
@<TRIPOS>MOLECULE
*****
 37 39 0 0 0
SMALL
GASTEIGER

@<TRIPOS>ATOM
      1 C         143.6839  139.2517  159.8689 C.ar    1  UNL1        0.1386
      2 C         144.0562  140.4643  160.6696 C.ar    1  UNL1        0.0383
      3 C         144.0016  140.4194  162.1679 C.ar    1  UNL1        0.0233
      4 C         143.5747  139.1620  162.8655 C.ar    1  UNL1        0.1255
      5 C         143.2024  137.9495  162.0649 C.ar    1  UNL1        0.0233
      6 C         143.2570  137.9943  160.5665 C.ar    1  UNL1        0.0383
      7 S         143.5201  139.1171  164.3638 S.O2    1  UNL1        0.0768
      8 O         144.7043  140.0351  164.4345 O.2     1  UNL1       -0.1498
      9 O         142.3360  138.1992  164.2932 O.2     1  UNL1       -0.1498
     10 N         143.4656  139.0723  165.8622 N.am    1  UNL1       -0.1690
     11 C         142.6122  140.0524  166.6113 C.2     1  UNL1        0.3231
     12 O         141.8134  141.0774  165.8620 O.2     1  UNL1       -0.2509
     13 N         142.5576  140.0076  168.1096 N.am    1  UNL1       -0.2671
     14 H         143.9898  138.3996  166.3540 H       1  UNL1        0.1781
     15 H         143.0819  139.3349  168.6014 H       1  UNL1        0.1565
     16 C         141.7042  140.9878  168.8587 C.ar    1  UNL1        0.0516
     17 C         142.2175  142.3693  169.1376 C.ar    1  UNL1        0.0147
     18 C         141.3642  143.3494  169.8867 C.ar    1  UNL1        0.0013
     19 C         139.9975  142.9480  170.3568 C.ar    1  UNL1        0.0001
     20 C         139.4842  141.5665  170.0778 C.ar    1  UNL1        0.0013
     21 C         140.3376  140.5864  169.3288 C.ar    1  UNL1        0.0147
     22 O         143.7385  139.2966  158.3706 O.3     1  UNL1       -0.4755
     23 C         142.4930  139.5760  157.5827 C.3     1  UNL1        0.2054
     24 C         141.3369  138.6221  157.6440 C.3     1  UNL1        0.0488
     25 C         140.0042  139.0903  158.1485 C.3     1  UNL1        0.0212
     26 C         139.6911  139.0227  159.6139 C.3     1  UNL1        0.0722
     27 C         140.8653  142.4175  162.3244 C.3     1  UNL1        0.1018
     28 C         140.9307  142.5893  160.8358 C.3     1  UNL1        0.0285
     29 C         140.5393  141.4577  159.9323 C.3     1  UNL1        0.0727
     30 N         140.0825  140.1543  160.5174 N.3     1  UNL1       -0.2727
     31 C         140.0171  139.9825  162.0061 C.3     1  UNL1        0.0727
     32 C         140.4085  141.1141  162.9096 C.3     1  UNL1        0.0285
     33 C         141.2567  143.5490  163.2279 C.2     1  UNL1        0.3165
     34 O         142.6899  143.7224  163.6351 O.2     1  UNL1       -0.2501
     35 O         140.2149  144.5073  163.7243 O.3     1  UNL1       -0.4485
     36 C         137.6798  144.0238  163.4250 C.3     1  UNL1        0.0513
     37 C         138.9390  144.6915  162.9573 C.3     1  UNL1        0.2086
@<TRIPOS>BOND
     1    36    37    1
     2    37    35    1
     3    35    33    1
     4    33    34    2
     5    33    27    1
     6    27    28    1
     7    28    29    1
     8    29    30    1
     9    30    26    1
    10    26    25    1
    11    25    24    1
    12    24    23    1
    13    23    22    1
    14    22     1    1
    15     1     2   ar
    16     2     3   ar
    17     3     4   ar
    18     4     7    1
    19     7     8    2
    20     7     9    2
    21     7    10    1
    22    10    11   am
    23    11    12    2
    24    11    13   am
    25    13    16    1
    26    16    17   ar
    27    17    18   ar
    28    18    19   ar
    29    19    20   ar
    30    20    21   ar
    31     4     5   ar
    32     5     6   ar
    33    30    31    1
    34    31    32    1
    35    32    27    1
    36     6     1   ar
    37    21    16   ar
    38    10    14    1
    39    13    15    1
