@<TRIPOS>MOLECULE
*****
 26 29 0 0 0
SMALL
GASTEIGER

@<TRIPOS>ATOM
      1 N         140.3724  138.4544  163.8008 N.am    1  UNL1       -0.2414
      2 C         139.7304  138.3671  162.4479 C.3     1  UNL1        0.1212
      3 C         140.8137  138.1462  161.4341 C.3     1  UNL1        0.1169
      4 N         142.1252  138.0969  162.1605 N.am    1  UNL1       -0.2606
      5 C         141.8525  138.2875  163.6231 C.2     1  UNL1        0.3111
      6 O         142.8794  138.3075  164.7163 O.2     1  UNL1       -0.2520
      7 C         139.4261  139.9431  167.3558 C.ar    1  UNL1       -0.0213
      8 C         138.2336  139.1035  167.7064 C.ar    1  UNL1       -0.0042
      9 C         137.7541  138.0475  166.7551 C.ar    1  UNL1        0.0010
     10 C         138.4670  137.8311  165.4532 C.ar    1  UNL1        0.0149
     11 C         139.6595  138.6707  165.1026 C.ar    1  UNL1        0.0550
     12 C         140.1390  139.7267  166.0539 C.ar    1  UNL1        0.0107
     13 C         139.5021  140.9472  169.7508 C.3     1  UNL1        0.0047
     14 C         139.9057  140.9991  168.3070 C.3     1  UNL1        0.0224
     15 C         140.7889  142.1070  167.8145 C.3     1  UNL1        0.0047
     16 C         143.4729  137.8930  161.5342 C.3     1  UNL1        0.1123
     17 C         144.2732  139.0756  161.0750 C.3     1  UNL1        0.0944
     18 N         144.1572  140.3856  161.7964 N.3     1  UNL1       -0.2637
     19 C         143.4455  141.6076  161.2961 C.3     1  UNL1        0.0992
     20 C         143.5809  142.6808  162.3353 C.ar    1  UNL1       -0.0088
     21 C         143.0827  144.0946  162.3888 C.ar    1  UNL1       -0.0032
     22 C         143.3799  144.9498  163.5848 C.ar    1  UNL1       -0.0003
     23 C         144.1752  144.3911  164.7273 C.ar    1  UNL1       -0.0003
     24 C         144.6734  142.9772  164.6738 C.ar    1  UNL1       -0.0032
     25 C         144.3762  142.1221  163.4778 C.ar    1  UNL1       -0.0088
     26 C         144.7324  140.7036  163.1447 C.3     1  UNL1        0.0992
@<TRIPOS>BOND
     1    13    14    1
     2    14    15    1
     3    14     7    1
     4     7     8   ar
     5     8     9   ar
     6     9    10   ar
     7    10    11   ar
     8    11     1    1
     9     1     2    1
    10     2     3    1
    11     3     4    1
    12     4    16    1
    13    16    17    1
    14    17    18    1
    15    18    19    1
    16    19    20    1
    17    20    21   ar
    18    21    22   ar
    19    22    23   ar
    20    23    24   ar
    21    24    25   ar
    22    25    26    1
    23     4     5   am
    24     5     6    2
    25    11    12   ar
    26    12     7   ar
    27     5     1   am
    28    26    18    1
    29    25    20   ar
@<TRIPOS>MOLECULE
*****
 26 29 0 0 0
SMALL
GASTEIGER

@<TRIPOS>ATOM
      1 N         138.8287  141.3961  162.6362 N.am    1  UNL1       -0.2414
      2 C         138.5232  141.5506  161.1758 C.3     1  UNL1        0.1212
      3 C         138.5964  143.0105  160.8387 C.3     1  UNL1        0.1169
      4 N         138.9471  143.7582  162.0910 N.am    1  UNL1       -0.2606
      5 C         139.0907  142.7605  163.2018 C.2     1  UNL1        0.3111
      6 O         139.4356  143.0723  164.6279 O.2     1  UNL1       -0.2520
      7 C         138.4942  138.7798  165.6014 C.ar    1  UNL1       -0.0213
      8 C         138.9395  137.5202  164.9196 C.ar    1  UNL1       -0.0042
      9 C         139.3479  137.5525  163.4766 C.ar    1  UNL1        0.0010
     10 C         139.3110  138.8445  162.7155 C.ar    1  UNL1        0.0149
     11 C         138.8656  140.1041  163.3973 C.ar    1  UNL1        0.0550
     12 C         138.4572  140.0718  164.8403 C.ar    1  UNL1        0.0107
     13 C         137.0447  137.7719  167.5076 C.3     1  UNL1        0.0047
     14 C         138.0858  138.7475  167.0444 C.3     1  UNL1        0.0224
     15 C         138.7184  139.6908  168.0242 C.3     1  UNL1        0.0047
     16 C         139.1234  145.2430  162.2112 C.3     1  UNL1        0.1123
     17 C         140.4999  145.8282  162.3232 C.3     1  UNL1        0.0944
     18 N         141.6707  144.9394  162.6220 N.3     1  UNL1       -0.2637
     19 C         142.3032  144.7367  163.9669 C.3     1  UNL1        0.0992
     20 C         143.4380  143.7693  163.8045 C.ar    1  UNL1       -0.0088
     21 C         144.4175  143.1973  164.7859 C.ar    1  UNL1       -0.0032
     22 C         145.4659  142.2300  164.3220 C.ar    1  UNL1       -0.0003
     23 C         145.5347  141.8348  162.8767 C.ar    1  UNL1       -0.0003
     24 C         144.5552  142.4069  161.8952 C.ar    1  UNL1       -0.0032
     25 C         143.5069  143.3741  162.3591 C.ar    1  UNL1       -0.0088
     26 C         142.4146  144.0973  161.6284 C.3     1  UNL1        0.0992
@<TRIPOS>BOND
     1    13    14    1
     2    14    15    1
     3    14     7    1
     4     7     8   ar
     5     8     9   ar
     6     9    10   ar
     7    10    11   ar
     8    11     1    1
     9     1     2    1
    10     2     3    1
    11     3     4    1
    12     4    16    1
    13    16    17    1
    14    17    18    1
    15    18    19    1
    16    19    20    1
    17    20    21   ar
    18    21    22   ar
    19    22    23   ar
    20    23    24   ar
    21    24    25   ar
    22    25    26    1
    23     4     5   am
    24     5     6    2
    25    11    12   ar
    26    12     7   ar
    27     5     1   am
    28    26    18    1
    29    25    20   ar
@<TRIPOS>MOLECULE
*****
 26 29 0 0 0
SMALL
GASTEIGER

@<TRIPOS>ATOM
      1 N         138.8176  141.5668  162.4540 N.am    1  UNL1       -0.2414
      2 C         137.9576  142.7542  162.7709 C.3     1  UNL1        0.1212
      3 C         138.3070  143.8499  161.8078 C.3     1  UNL1        0.1169
      4 N         139.3830  143.3395  160.8957 N.am    1  UNL1       -0.2606
      5 C         139.6985  141.9285  161.2951 C.2     1  UNL1        0.3111
      6 O         140.7163  141.0359  160.6490 O.2     1  UNL1       -0.2520
      7 C         138.5138  138.8831  165.3618 C.ar    1  UNL1       -0.0213
      8 C         138.7640  137.6136  164.6031 C.ar    1  UNL1       -0.0042
      9 C         139.0320  137.6617  163.1280 C.ar    1  UNL1        0.0010
     10 C         139.0499  138.9795  162.4116 C.ar    1  UNL1        0.0149
     11 C         138.7997  140.2490  163.1703 C.ar    1  UNL1        0.0550
     12 C         138.5317  140.2009  164.6454 C.ar    1  UNL1        0.0107
     13 C         139.0350  139.7034  167.7714 C.3     1  UNL1        0.0047
     14 C         138.2458  138.8349  166.8369 C.3     1  UNL1        0.0224
     15 C         137.1887  137.9184  167.3776 C.3     1  UNL1        0.0047
     16 C         140.0298  144.1056  159.7800 C.3     1  UNL1        0.1123
     17 C         141.3823  144.7228  159.9796 C.3     1  UNL1        0.0944
     18 N         142.3187  144.1611  161.0081 N.3     1  UNL1       -0.2637
     19 C         143.3856  143.1358  160.7625 C.3     1  UNL1        0.0992
     20 C         144.0789  142.8670  162.0653 C.ar    1  UNL1       -0.0088
     21 C         145.2091  141.9509  162.4306 C.ar    1  UNL1       -0.0032
     22 C         145.7007  141.8941  163.8465 C.ar    1  UNL1       -0.0003
     23 C         145.0622  142.7534  164.8972 C.ar    1  UNL1       -0.0003
     24 C         143.9321  143.6695  164.5320 C.ar    1  UNL1       -0.0032
     25 C         143.4404  143.7263  163.1160 C.ar    1  UNL1       -0.0088
     26 C         142.3525  144.5261  162.4626 C.3     1  UNL1        0.0992
@<TRIPOS>BOND
     1    13    14    1
     2    14    15    1
     3    14     7    1
     4     7     8   ar
     5     8     9   ar
     6     9    10   ar
     7    10    11   ar
     8    11     1    1
     9     1     2    1
    10     2     3    1
    11     3     4    1
    12     4    16    1
    13    16    17    1
    14    17    18    1
    15    18    19    1
    16    19    20    1
    17    20    21   ar
    18    21    22   ar
    19    22    23   ar
    20    23    24   ar
    21    24    25   ar
    22    25    26    1
    23     4     5   am
    24     5     6    2
    25    11    12   ar
    26    12     7   ar
    27     5     1   am
    28    26    18    1
    29    25    20   ar
@<TRIPOS>MOLECULE
*****
 26 29 0 0 0
SMALL
GASTEIGER

@<TRIPOS>ATOM
      1 N         143.2263  141.9479  160.7956 N.am    1  UNL1       -0.2414
      2 C         142.8818  141.1896  159.5481 C.3     1  UNL1        0.1212
      3 C         142.2640  142.1513  158.5767 C.3     1  UNL1        0.1169
      4 N         142.2266  143.5040  159.2240 N.am    1  UNL1       -0.2606
      5 C         142.8213  143.3782  160.5953 C.2     1  UNL1        0.3111
      6 O         142.9827  144.4880  161.5915 O.2     1  UNL1       -0.2520
      7 C         143.8031  139.7256  164.0326 C.ar    1  UNL1       -0.0213
      8 C         145.1385  140.2326  164.4902 C.ar    1  UNL1       -0.0042
      9 C         145.8366  141.3114  163.7163 C.ar    1  UNL1        0.0010
     10 C         145.1992  141.8831  162.4847 C.ar    1  UNL1        0.0149
     11 C         143.8637  141.3761  162.0271 C.ar    1  UNL1        0.0550
     12 C         143.1657  140.2974  162.8011 C.ar    1  UNL1        0.0107
     13 C         143.5914  138.2708  166.1749 C.3     1  UNL1        0.0047
     14 C         143.1050  138.6468  164.8066 C.3     1  UNL1        0.0224
     15 C         141.9206  137.9439  164.2122 C.3     1  UNL1        0.0047
     16 C         141.6888  144.7615  158.6081 C.3     1  UNL1        0.1123
     17 C         140.4151  145.3636  159.1228 C.3     1  UNL1        0.0944
     18 N         139.8136  144.8649  160.4033 N.3     1  UNL1       -0.2637
     19 C         139.1035  143.5575  160.5935 C.3     1  UNL1        0.0992
     20 C         138.6677  143.4707  162.0262 C.ar    1  UNL1       -0.0088
     21 C         137.9264  142.4119  162.7874 C.ar    1  UNL1       -0.0032
     22 C         137.6260  142.6070  164.2440 C.ar    1  UNL1       -0.0003
     23 C         138.0669  143.8609  164.9393 C.ar    1  UNL1       -0.0003
     24 C         138.8082  144.9196  164.1781 C.ar    1  UNL1       -0.0032
     25 C         139.1086  144.7245  162.7215 C.ar    1  UNL1       -0.0088
     26 C         139.8168  145.5862  161.7185 C.3     1  UNL1        0.0992
@<TRIPOS>BOND
     1    13    14    1
     2    14    15    1
     3    14     7    1
     4     7     8   ar
     5     8     9   ar
     6     9    10   ar
     7    10    11   ar
     8    11     1    1
     9     1     2    1
    10     2     3    1
    11     3     4    1
    12     4    16    1
    13    16    17    1
    14    17    18    1
    15    18    19    1
    16    19    20    1
    17    20    21   ar
    18    21    22   ar
    19    22    23   ar
    20    23    24   ar
    21    24    25   ar
    22    25    26    1
    23     4     5   am
    24     5     6    2
    25    11    12   ar
    26    12     7   ar
    27     5     1   am
    28    26    18    1
    29    25    20   ar
@<TRIPOS>MOLECULE
*****
 26 29 0 0 0
SMALL
GASTEIGER

@<TRIPOS>ATOM
      1 N         140.9286  142.9441  165.4325 N.am    1  UNL1       -0.2414
      2 C         140.1255  143.9531  164.6665 C.3     1  UNL1        0.1212
      3 C         141.0684  144.7358  163.8012 C.3     1  UNL1        0.1169
      4 N         142.4542  144.2104  164.0326 N.am    1  UNL1       -0.2606
      5 C         142.3678  143.1031  165.0407 C.2     1  UNL1        0.3111
      6 O         143.5186  142.2963  165.5651 O.2     1  UNL1       -0.2520
      7 C         139.1076  139.7452  166.9160 C.ar    1  UNL1       -0.0213
      8 C         139.3052  139.9632  168.3869 C.ar    1  UNL1       -0.0042
      9 C         140.0439  141.1749  168.8729 C.ar    1  UNL1        0.0010
     10 C         140.5850  142.1685  167.8881 C.ar    1  UNL1        0.0149
     11 C         140.3875  141.9505  166.4173 C.ar    1  UNL1        0.0550
     12 C         139.6488  140.7389  165.9312 C.ar    1  UNL1        0.0107
     13 C         138.7371  137.9070  165.1177 C.3     1  UNL1        0.0047
     14 C         138.3689  138.5336  166.4300 C.3     1  UNL1        0.0224
     15 C         137.2620  137.9486  167.2561 C.3     1  UNL1        0.0047
     16 C         143.7065  144.7054  163.3718 C.3     1  UNL1        0.1123
     17 C         144.4552  143.8173  162.4228 C.3     1  UNL1        0.0944
     18 N         143.8920  142.4793  162.0452 N.3     1  UNL1       -0.2637
     19 C         142.6239  142.2405  161.2803 C.3     1  UNL1        0.0992
     20 C         142.4461  140.7589  161.1285 C.ar    1  UNL1       -0.0088
     21 C         141.3793  139.9387  160.4659 C.ar    1  UNL1       -0.0032
     22 C         141.4706  138.4415  160.4744 C.ar    1  UNL1       -0.0003
     23 C         142.6287  137.7645  161.1455 C.ar    1  UNL1       -0.0003
     24 C         143.6956  138.5847  161.8081 C.ar    1  UNL1       -0.0032
     25 C         143.6043  140.0819  161.7996 C.ar    1  UNL1       -0.0088
     26 C         144.4978  141.1452  162.3661 C.3     1  UNL1        0.0992
@<TRIPOS>BOND
     1    13    14    1
     2    14    15    1
     3    14     7    1
     4     7     8   ar
     5     8     9   ar
     6     9    10   ar
     7    10    11   ar
     8    11     1    1
     9     1     2    1
    10     2     3    1
    11     3     4    1
    12     4    16    1
    13    16    17    1
    14    17    18    1
    15    18    19    1
    16    19    20    1
    17    20    21   ar
    18    21    22   ar
    19    22    23   ar
    20    23    24   ar
    21    24    25   ar
    22    25    26    1
    23     4     5   am
    24     5     6    2
    25    11    12   ar
    26    12     7   ar
    27     5     1   am
    28    26    18    1
    29    25    20   ar
@<TRIPOS>MOLECULE
*****
 26 29 0 0 0
SMALL
GASTEIGER

@<TRIPOS>ATOM
      1 N         139.8493  139.6869  164.9466 N.am    1  UNL1       -0.2414
      2 C         139.7896  138.5934  163.9216 C.3     1  UNL1        0.1212
      3 C         138.9166  139.0610  162.7950 C.3     1  UNL1        0.1169
      4 N         138.4367  140.4437  163.1238 N.am    1  UNL1       -0.2606
      5 C         139.0131  140.8305  164.4535 C.2     1  UNL1        0.3111
      6 O         138.7921  142.1322  165.1652 O.2     1  UNL1       -0.2520
      7 C         140.6945  139.9768  168.8132 C.ar    1  UNL1       -0.0213
      8 C         142.1351  139.5592  168.8206 C.ar    1  UNL1       -0.0042
      9 C         142.8139  139.1841  167.5365 C.ar    1  UNL1        0.0010
     10 C         142.0519  139.2267  166.2452 C.ar    1  UNL1        0.0149
     11 C         140.6113  139.6443  166.2378 C.ar    1  UNL1        0.0550
     12 C         139.9325  140.0194  167.5219 C.ar    1  UNL1        0.0107
     13 C         140.8312  140.8040  171.2724 C.3     1  UNL1        0.0047
     14 C         140.0158  140.3519  170.0973 C.3     1  UNL1        0.0224
     15 C         138.5218  140.2748  170.2062 C.3     1  UNL1        0.0047
     16 C         137.5381  141.2908  162.2723 C.3     1  UNL1        0.1123
     17 C         138.0896  142.4933  161.5653 C.3     1  UNL1        0.0944
     18 N         139.4466  143.0198  161.9281 N.3     1  UNL1       -0.2637
     19 C         140.7594  142.4888  161.4337 C.3     1  UNL1        0.0992
     20 C         141.8531  143.3105  162.0490 C.ar    1  UNL1       -0.0088
     21 C         143.3467  143.2470  161.9258 C.ar    1  UNL1       -0.0032
     22 C         144.2033  144.2224  162.6772 C.ar    1  UNL1       -0.0003
     23 C         143.5664  145.2613  163.5519 C.ar    1  UNL1       -0.0003
     24 C         142.0728  145.3248  163.6751 C.ar    1  UNL1       -0.0032
     25 C         141.2162  144.3494  162.9236 C.ar    1  UNL1       -0.0088
     26 C         139.7289  144.1697  162.8489 C.3     1  UNL1        0.0992
@<TRIPOS>BOND
     1    13    14    1
     2    14    15    1
     3    14     7    1
     4     7     8   ar
     5     8     9   ar
     6     9    10   ar
     7    10    11   ar
     8    11     1    1
     9     1     2    1
    10     2     3    1
    11     3     4    1
    12     4    16    1
    13    16    17    1
    14    17    18    1
    15    18    19    1
    16    19    20    1
    17    20    21   ar
    18    21    22   ar
    19    22    23   ar
    20    23    24   ar
    21    24    25   ar
    22    25    26    1
    23     4     5   am
    24     5     6    2
    25    11    12   ar
    26    12     7   ar
    27     5     1   am
    28    26    18    1
    29    25    20   ar
@<TRIPOS>MOLECULE
*****
 26 29 0 0 0
SMALL
GASTEIGER

@<TRIPOS>ATOM
      1 N         142.6004  142.5472  161.8619 N.am    1  UNL1       -0.2414
      2 C         144.0617  142.7873  162.1003 C.3     1  UNL1        0.1212
      3 C         144.7981  141.5207  161.7786 C.3     1  UNL1        0.1169
      4 N         143.7918  140.4978  161.3412 N.am    1  UNL1       -0.2606
      5 C         142.4336  141.1323  161.3927 C.2     1  UNL1        0.3111
      6 O         141.1363  140.4684  161.0374 O.2     1  UNL1       -0.2520
      7 C         139.4183  144.3718  163.3767 C.ar    1  UNL1       -0.0213
      8 C         139.2969  145.5456  162.4507 C.ar    1  UNL1       -0.0042
      9 C         140.2767  145.7198  161.3283 C.ar    1  UNL1        0.0010
     10 C         141.3779  144.7204  161.1320 C.ar    1  UNL1        0.0149
     11 C         141.4993  143.5467  162.0581 C.ar    1  UNL1        0.0550
     12 C         140.5195  143.3724  163.1804 C.ar    1  UNL1        0.0107
     13 C         137.3886  143.1292  164.4190 C.3     1  UNL1        0.0047
     14 C         138.4385  144.1976  164.4991 C.3     1  UNL1        0.0224
     15 C         138.5086  145.0916  165.7015 C.3     1  UNL1        0.0047
     16 C         144.0912  139.0880  160.9254 C.3     1  UNL1        0.1123
     17 C         143.7233  137.9463  161.8260 C.3     1  UNL1        0.0944
     18 N         142.6114  138.1036  162.8205 N.3     1  UNL1       -0.2637
     19 C         141.2528  137.4743  162.7309 C.3     1  UNL1        0.0992
     20 C         140.4647  137.8997  163.9343 C.ar    1  UNL1       -0.0088
     21 C         139.0660  137.5899  164.3789 C.ar    1  UNL1       -0.0032
     22 C         138.5390  138.1722  165.6568 C.ar    1  UNL1       -0.0003
     23 C         139.4106  139.0644  166.4900 C.ar    1  UNL1       -0.0003
     24 C         140.8092  139.3742  166.0454 C.ar    1  UNL1       -0.0032
     25 C         141.3363  138.7919  164.7675 C.ar    1  UNL1       -0.0088
     26 C         142.6630  138.9179  164.0792 C.3     1  UNL1        0.0992
@<TRIPOS>BOND
     1    13    14    1
     2    14    15    1
     3    14     7    1
     4     7     8   ar
     5     8     9   ar
     6     9    10   ar
     7    10    11   ar
     8    11     1    1
     9     1     2    1
    10     2     3    1
    11     3     4    1
    12     4    16    1
    13    16    17    1
    14    17    18    1
    15    18    19    1
    16    19    20    1
    17    20    21   ar
    18    21    22   ar
    19    22    23   ar
    20    23    24   ar
    21    24    25   ar
    22    25    26    1
    23     4     5   am
    24     5     6    2
    25    11    12   ar
    26    12     7   ar
    27     5     1   am
    28    26    18    1
    29    25    20   ar
@<TRIPOS>MOLECULE
*****
 26 29 0 0 0
SMALL
GASTEIGER

@<TRIPOS>ATOM
      1 N         140.8573  138.7364  163.3217 N.am    1  UNL1       -0.2414
      2 C         141.6809  137.5473  162.9246 C.3     1  UNL1        0.1212
      3 C         142.2820  137.8280  161.5793 C.3     1  UNL1        0.1169
      4 N         141.8299  139.1908  161.1449 N.am    1  UNL1       -0.2606
      5 C         140.9494  139.7522  162.2218 C.2     1  UNL1        0.3111
      6 O         140.2787  141.0937  162.2022 O.2     1  UNL1       -0.2520
      7 C         139.6802  140.0887  166.8622 C.ar    1  UNL1       -0.0213
      8 C         138.5209  139.1789  167.1420 C.ar    1  UNL1       -0.0042
      9 C         138.1404  138.1217  166.1483 C.ar    1  UNL1        0.0010
     10 C         138.9192  137.9741  164.8748 C.ar    1  UNL1        0.0149
     11 C         140.0785  138.8839  164.5951 C.ar    1  UNL1        0.0550
     12 C         140.4590  139.9412  165.5888 C.ar    1  UNL1        0.0107
     13 C         140.7469  142.3973  167.3939 C.3     1  UNL1        0.0047
     14 C         140.0607  141.1460  167.8559 C.3     1  UNL1        0.0224
     15 C         139.7551  140.9520  169.3115 C.3     1  UNL1        0.0047
     16 C         142.1942  139.8724  159.8594 C.3     1  UNL1        0.1123
     17 C         143.2690  140.9186  159.8436 C.3     1  UNL1        0.0944
     18 N         143.5198  141.7547  161.0634 N.3     1  UNL1       -0.2637
     19 C         144.2609  141.3203  162.2931 C.3     1  UNL1        0.0992
     20 C         144.2726  142.4692  163.2574 C.ar    1  UNL1       -0.0088
     21 C         144.8568  142.6210  164.6306 C.ar    1  UNL1       -0.0032
     22 C         144.7069  143.9173  165.3702 C.ar    1  UNL1       -0.0003
     23 C         143.9730  145.0618  164.7366 C.ar    1  UNL1       -0.0003
     24 C         143.3889  144.9100  163.3634 C.ar    1  UNL1       -0.0032
     25 C         143.5387  143.6137  162.6238 C.ar    1  UNL1       -0.0088
     26 C         143.0734  143.1721  161.2679 C.3     1  UNL1        0.0992
@<TRIPOS>BOND
     1    13    14    1
     2    14    15    1
     3    14     7    1
     4     7     8   ar
     5     8     9   ar
     6     9    10   ar
     7    10    11   ar
     8    11     1    1
     9     1     2    1
    10     2     3    1
    11     3     4    1
    12     4    16    1
    13    16    17    1
    14    17    18    1
    15    18    19    1
    16    19    20    1
    17    20    21   ar
    18    21    22   ar
    19    22    23   ar
    20    23    24   ar
    21    24    25   ar
    22    25    26    1
    23     4     5   am
    24     5     6    2
    25    11    12   ar
    26    12     7   ar
    27     5     1   am
    28    26    18    1
    29    25    20   ar
@<TRIPOS>MOLECULE
*****
 26 29 0 0 0
SMALL
GASTEIGER

@<TRIPOS>ATOM
      1 N         140.6773  139.3084  164.7163 N.am    1  UNL1       -0.2414
      2 C         141.5776  139.3165  163.5165 C.3     1  UNL1        0.1212
      3 C         140.7295  139.0965  162.2990 C.3     1  UNL1        0.1169
      4 N         139.3050  138.9523  162.7463 N.am    1  UNL1       -0.2606
      5 C         139.2728  139.0833  164.2402 C.2     1  UNL1        0.3111
      6 O         138.0506  139.0033  165.1062 O.2     1  UNL1       -0.2520
      7 C         140.6099  140.3315  168.5501 C.ar    1  UNL1       -0.0213
      8 C         141.9641  139.8621  168.9926 C.ar    1  UNL1       -0.0042
      9 C         142.8894  139.2081  168.0096 C.ar    1  UNL1        0.0010
     10 C         142.4605  139.0235  166.5842 C.ar    1  UNL1        0.0149
     11 C         141.1063  139.4929  166.1417 C.ar    1  UNL1        0.0550
     12 C         140.1810  140.1469  167.1246 C.ar    1  UNL1        0.0107
     13 C         138.4948  140.2364  170.0559 C.3     1  UNL1        0.0047
     14 C         139.6846  140.9855  169.5331 C.3     1  UNL1        0.0224
     15 C         139.9492  142.3884  169.9932 C.3     1  UNL1        0.0047
     16 C         138.1207  138.7183  161.8560 C.3     1  UNL1        0.1123
     17 C         137.4054  139.8829  161.2378 C.3     1  UNL1        0.0944
     18 N         138.0121  141.2534  161.2977 N.3     1  UNL1       -0.2637
     19 C         138.9137  141.8644  160.2663 C.3     1  UNL1        0.0992
     20 C         139.2825  143.2422  160.7307 C.ar    1  UNL1       -0.0088
     21 C         140.1447  144.3088  160.1234 C.ar    1  UNL1       -0.0032
     22 C         140.3333  145.6159  160.8345 C.ar    1  UNL1       -0.0003
     23 C         139.6598  145.8564  162.1530 C.ar    1  UNL1       -0.0003
     24 C         138.7976  144.7898  162.7604 C.ar    1  UNL1       -0.0032
     25 C         138.6090  143.4827  162.0492 C.ar    1  UNL1       -0.0088
     26 C         137.8238  142.2535  162.3996 C.3     1  UNL1        0.0992
@<TRIPOS>BOND
     1    13    14    1
     2    14    15    1
     3    14     7    1
     4     7     8   ar
     5     8     9   ar
     6     9    10   ar
     7    10    11   ar
     8    11     1    1
     9     1     2    1
    10     2     3    1
    11     3     4    1
    12     4    16    1
    13    16    17    1
    14    17    18    1
    15    18    19    1
    16    19    20    1
    17    20    21   ar
    18    21    22   ar
    19    22    23   ar
    20    23    24   ar
    21    24    25   ar
    22    25    26    1
    23     4     5   am
    24     5     6    2
    25    11    12   ar
    26    12     7   ar
    27     5     1   am
    28    26    18    1
    29    25    20   ar
