@<TRIPOS>MOLECULE
*****
 39 42 0 0 0
SMALL
GASTEIGER

@<TRIPOS>ATOM
      1 C         142.1959  142.0959  159.8666 C.ar    1  UNL1        0.0619
      2 C         141.2524  141.6255  160.9338 C.ar    1  UNL1        0.0497
      3 C         141.6910  140.5784  161.9142 C.ar    1  UNL1        0.1366
      4 N         143.0730  140.0017  161.8275 N.ar    1  UNL1       -0.2282
      5 C         144.0164  140.4721  160.7604 C.ar    1  UNL1        0.1118
      6 C         143.5778  141.5192  159.7800 C.ar    1  UNL1        0.1009
      7 N         140.7476  140.1080  162.9813 N.am    1  UNL1       -0.2531
      8 C         140.9807  140.4941  164.4119 C.2     1  UNL1        0.3135
      9 O         142.1572  141.3506  164.7754 O.2     1  UNL1       -0.2518
     10 N         140.0373  140.0237  165.4790 N.am    1  UNL1       -0.2282
     11 C         138.8608  139.1671  165.1155 C.3     1  UNL1        0.1015
     12 C         137.9174  138.6967  166.1826 C.3     1  UNL1        0.0268
     13 C         138.1506  139.0829  167.6132 C.3     1  UNL1        0.0310
     14 C         139.3271  139.9394  167.9767 C.ar    1  UNL1        0.0097
     15 C         139.5602  140.3255  169.4072 C.ar    1  UNL1       -0.0018
     16 C         140.7367  141.1821  169.7707 C.ar    1  UNL1        0.0277
     17 CA        141.6801  141.6525  168.7036 C.ar    1  UNL1        0.1231
     18 N         141.4470  141.2664  167.2730 N.ar    1  UNL1       -0.2275
     19 C         140.2704  140.4098  166.9096 C.ar    1  UNL1        0.1345
     20 H         139.9754  139.5458  162.7427 H       1  UNL1        0.1578
     21 C         140.9698  141.5682  171.2013 C.3     1  UNL1        0.1652
     22 O         142.0260  140.8686  172.0044 O.3     1  UNL1       -0.3772
     23 H         141.7772  139.9390  172.1257 H       1  UNL1        0.2109
     24 C         142.8566  142.5090  169.0671 C.2     1  UNL1        0.2529
     25 O         143.9768  141.9370  169.8845 O.2     1  UNL1       -0.2815
     26 C         140.8801  145.2372  156.9254 C.3     1  UNL1        0.1063
     27 O         140.7674  146.7285  156.8105 O.3     1  UNL1       -0.3853
     28 C         141.4003  145.6422  158.2727 C.3     1  UNL1        0.0497
     29 C         141.8389  144.5951  159.2531 C.3     1  UNL1        0.0933
     30 N         141.7573  143.1430  158.8862 N.pl3   1  UNL1       -0.3067
     31 C         141.2370  142.7379  157.5388 C.3     1  UNL1        0.0933
     32 C         140.7984  143.7850  156.5584 C.3     1  UNL1        0.0497
     33 H         141.0773  147.1404  157.6322 H       1  UNL1        0.2103
     34 C         140.3207  145.3501  155.5381 C.3     1  UNL1        0.0994
     35 C         142.5224  145.2317  154.1639 C.3     1  UNL1        0.0897
     36 N         141.1833  145.8570  154.4206 N.3     1  UNL1       -0.2683
     37 C         140.7069  146.9893  153.5598 C.3     1  UNL1        0.0897
     38 C         144.5212  141.9896  158.7129 C.1     1  UNL1        0.1032
     39 N         145.4646  142.4600  157.6457 N.1     1  UNL1       -0.1907
@<TRIPOS>BOND
     1    35    36    1
     2    36    37    1
     3    36    34    1
     4    34    26    1
     5    26    27    1
     6    26    28    1
     7    28    29    1
     8    29    30    1
     9    30     1    1
    10     1     2   ar
    11     2     3   ar
    12     3     7    1
    13     7     8   am
    14     8     9    2
    15     8    10   am
    16    10    11    1
    17    11    12    1
    18    12    13    1
    19    13    14    1
    20    14    15   ar
    21    15    16   ar
    22    16    21    1
    23    21    22    1
    24    16    17   ar
    25    17    24    1
    26    24    25    2
    27    17    18   ar
    28    18    19   ar
    29     3     4   ar
    30     4     5   ar
    31     5     6   ar
    32     6    38    1
    33    38    39    3
    34    30    31    1
    35    31    32    1
    36    32    26    1
    37     6     1   ar
    38    19    10    1
    39    19    14   ar
    40    27    33    1
    41     7    20    1
    42    22    23    1
@<TRIPOS>MOLECULE
*****
 39 42 0 0 0
SMALL
GASTEIGER

@<TRIPOS>ATOM
      1 C         142.1141  138.8543  159.9997 C.ar    1  UNL1        0.0619
      2 C         141.7850  138.0710  158.7635 C.ar    1  UNL1        0.0497
      3 C         142.5281  138.3360  157.4877 C.ar    1  UNL1        0.1366
      4 N         143.6002  139.3845  157.4482 N.ar    1  UNL1       -0.2282
      5 C         143.9292  140.1678  158.6843 C.ar    1  UNL1        0.1118
      6 C         143.1861  139.9027  159.9601 C.ar    1  UNL1        0.1009
      7 N         142.1991  137.5527  156.2516 N.am    1  UNL1       -0.2531
      8 C         142.6776  136.1381  156.1105 C.2     1  UNL1        0.3135
      9 O         143.4851  135.5068  157.2057 O.2     1  UNL1       -0.2518
     10 N         142.3486  135.3548  154.8743 N.am    1  UNL1       -0.2282
     11 C         141.5411  135.9861  153.7791 C.3     1  UNL1        0.1015
     12 C         141.2122  135.2028  152.5430 C.3     1  UNL1        0.0268
     13 C         141.6907  133.7882  152.4020 C.3     1  UNL1        0.0310
     14 C         142.4981  133.1569  153.4971 C.ar    1  UNL1        0.0097
     15 C         142.9766  131.7422  153.3561 C.ar    1  UNL1       -0.0018
     16 C         143.7841  131.1109  154.4512 C.ar    1  UNL1        0.0277
     17 CA        144.1131  131.8942  155.6875 C.ar    1  UNL1        0.1231
     18 N         143.6346  133.3088  155.8285 N.ar    1  UNL1       -0.2275
     19 C         142.8271  133.9402  154.7333 C.ar    1  UNL1        0.1345
     20 H         141.6692  137.9671  155.5328 H       1  UNL1        0.1578
     21 C         144.2626  129.6963  154.3102 C.3     1  UNL1        0.1652
     22 O         145.5034  129.3994  153.5215 O.3     1  UNL1       -0.3772
     23 H         145.3519  129.6133  152.5876 H       1  UNL1        0.2109
     24 C         144.9206  131.2629  156.7826 C.2     1  UNL1        0.2529
     25 O         145.4779  132.1106  157.8876 O.2     1  UNL1       -0.2815
     26 C         139.8849  138.0591  163.8271 C.3     1  UNL1        0.1063
     27 O         140.0203  137.2641  165.0918 O.3     1  UNL1       -0.3853
     28 C         141.2058  137.3940  163.5764 C.3     1  UNL1        0.0497
     29 C         141.9488  137.6591  162.3006 C.3     1  UNL1        0.0933
     30 N         141.3710  138.5893  161.2755 N.pl3   1  UNL1       -0.3067
     31 C         140.0501  139.2544  161.5262 C.3     1  UNL1        0.0933
     32 C         139.3070  138.9894  162.8019 C.3     1  UNL1        0.0497
     33 H         140.8526  136.7664  165.0733 H       1  UNL1        0.2103
     34 C         138.6110  138.4481  164.5170 C.3     1  UNL1        0.0994
     35 C         139.5240  140.4077  165.9580 C.3     1  UNL1        0.0897
     36 N         138.6599  139.1893  165.8201 N.3     1  UNL1       -0.2683
     37 C         137.8448  138.7121  166.9854 C.3     1  UNL1        0.0897
     38 C         143.5151  140.6860  161.1963 C.1     1  UNL1        0.1032
     39 N         143.8440  141.4694  162.4325 N.1     1  UNL1       -0.1907
@<TRIPOS>BOND
     1    35    36    1
     2    36    37    1
     3    36    34    1
     4    34    26    1
     5    26    27    1
     6    26    28    1
     7    28    29    1
     8    29    30    1
     9    30     1    1
    10     1     2   ar
    11     2     3   ar
    12     3     7    1
    13     7     8   am
    14     8     9    2
    15     8    10   am
    16    10    11    1
    17    11    12    1
    18    12    13    1
    19    13    14    1
    20    14    15   ar
    21    15    16   ar
    22    16    21    1
    23    21    22    1
    24    16    17   ar
    25    17    24    1
    26    24    25    2
    27    17    18   ar
    28    18    19   ar
    29     3     4   ar
    30     4     5   ar
    31     5     6   ar
    32     6    38    1
    33    38    39    3
    34    30    31    1
    35    31    32    1
    36    32    26    1
    37     6     1   ar
    38    19    10    1
    39    19    14   ar
    40    27    33    1
    41     7    20    1
    42    22    23    1
@<TRIPOS>MOLECULE
*****
 39 42 0 0 0
SMALL
GASTEIGER

@<TRIPOS>ATOM
      1 C         141.4426  142.7542  160.0357 C.ar    1  UNL1        0.0619
      2 C         140.8711  141.8369  161.0760 C.ar    1  UNL1        0.0497
      3 C         140.0143  142.3911  162.1755 C.ar    1  UNL1        0.1366
      4 N         139.7290  143.8626  162.2347 N.ar    1  UNL1       -0.2282
      5 C         140.3005  144.7798  161.1944 C.ar    1  UNL1        0.1118
      6 C         141.1572  144.2256  160.0950 C.ar    1  UNL1        0.1009
      7 N         139.4429  141.4739  163.2157 N.am    1  UNL1       -0.2531
      8 C         139.8717  141.6037  164.6472 C.2     1  UNL1        0.3135
      9 O         140.8720  142.6508  165.0385 O.2     1  UNL1       -0.2518
     10 N         139.3002  140.6865  165.6875 N.am    1  UNL1       -0.2282
     11 C         138.3000  139.6394  165.2962 C.3     1  UNL1        0.1015
     12 C         137.7285  138.7223  166.3365 C.3     1  UNL1        0.0268
     13 C         138.1574  138.8521  167.7680 C.3     1  UNL1        0.0310
     14 C         139.1576  139.8991  168.1593 C.ar    1  UNL1        0.0097
     15 C         139.5865  140.0289  169.5908 C.ar    1  UNL1       -0.0018
     16 C         140.5867  141.0760  169.9821 C.ar    1  UNL1        0.0277
     17 CA        141.1582  141.9932  168.9418 C.ar    1  UNL1        0.1231
     18 N         140.7294  141.8634  167.5103 N.ar    1  UNL1       -0.2275
     19 C         139.7291  140.8163  167.1190 C.ar    1  UNL1        0.1345
     20 H         138.7864  140.7867  162.9589 H       1  UNL1        0.1578
     21 C         141.0156  141.2058  171.4136 C.3     1  UNL1        0.1652
     22 O         142.3103  140.5989  171.8667 O.3     1  UNL1       -0.3772
     23 H         142.2550  139.6327  171.8008 H       1  UNL1        0.2109
     24 C         142.1585  143.0403  169.3331 C.2     1  UNL1        0.2529
     25 O         141.8094  144.0574  170.3789 O.2     1  UNL1       -0.2815
     26 C         144.0128  141.0916  156.7373 C.3     1  UNL1        0.1063
     27 O         143.8778  140.4161  155.4049 O.3     1  UNL1       -0.3853
     28 C         142.5182  141.0305  156.6266 C.3     1  UNL1        0.0497
     29 C         141.6614  141.5847  157.7261 C.3     1  UNL1        0.0933
     30 N         142.2993  142.2000  158.9363 N.pl3   1  UNL1       -0.3067
     31 C         143.7940  142.2611  159.0470 C.3     1  UNL1        0.0933
     32 C         144.6508  141.7069  157.9475 C.3     1  UNL1        0.0497
     33 H         142.9379  140.3052  155.1924 H       1  UNL1        0.2103
     34 C         145.4606  140.9181  156.3852 C.3     1  UNL1        0.0994
     35 C         145.6018  142.9014  154.7130 C.3     1  UNL1        0.0897
     36 N         146.2280  142.0579  155.7837 N.3     1  UNL1       -0.2683
     37 C         147.6216  142.3542  156.2528 C.3     1  UNL1        0.0897
     38 C         141.7287  145.1428  159.0547 C.1     1  UNL1        0.1032
     39 N         142.3002  146.0600  158.0144 N.1     1  UNL1       -0.1907
@<TRIPOS>BOND
     1    35    36    1
     2    36    37    1
     3    36    34    1
     4    34    26    1
     5    26    27    1
     6    26    28    1
     7    28    29    1
     8    29    30    1
     9    30     1    1
    10     1     2   ar
    11     2     3   ar
    12     3     7    1
    13     7     8   am
    14     8     9    2
    15     8    10   am
    16    10    11    1
    17    11    12    1
    18    12    13    1
    19    13    14    1
    20    14    15   ar
    21    15    16   ar
    22    16    21    1
    23    21    22    1
    24    16    17   ar
    25    17    24    1
    26    24    25    2
    27    17    18   ar
    28    18    19   ar
    29     3     4   ar
    30     4     5   ar
    31     5     6   ar
    32     6    38    1
    33    38    39    3
    34    30    31    1
    35    31    32    1
    36    32    26    1
    37     6     1   ar
    38    19    10    1
    39    19    14   ar
    40    27    33    1
    41     7    20    1
    42    22    23    1
@<TRIPOS>MOLECULE
*****
 39 42 0 0 0
SMALL
GASTEIGER

@<TRIPOS>ATOM
      1 C         140.6759  142.7443  159.7386 C.ar    1  UNL1        0.0619
      2 C         141.1310  141.7548  160.7701 C.ar    1  UNL1        0.0497
      3 C         141.8479  142.2291  161.9993 C.ar    1  UNL1        0.1366
      4 N         142.1098  143.6928  162.1971 N.ar    1  UNL1       -0.2282
      5 C         141.6547  144.6822  161.1656 C.ar    1  UNL1        0.1118
      6 C         140.9378  144.2079  159.9363 C.ar    1  UNL1        0.1009
      7 N         142.3029  141.2397  163.0309 N.am    1  UNL1       -0.2531
      8 C         141.9917  141.4703  164.4800 C.2     1  UNL1        0.3135
      9 O         141.2255  142.6903  164.8976 O.2     1  UNL1       -0.2518
     10 N         142.4468  140.4809  165.5115 N.am    1  UNL1       -0.2282
     11 C         143.2131  139.2609  165.0939 C.3     1  UNL1        0.1015
     12 C         143.6681  138.2716  166.1254 C.3     1  UNL1        0.0268
     13 C         143.3569  138.5022  167.5745 C.3     1  UNL1        0.0310
     14 C         142.5906  139.7222  167.9921 C.ar    1  UNL1        0.0097
     15 C         142.2794  139.9528  169.4413 C.ar    1  UNL1       -0.0018
     16 C         141.5132  141.1727  169.8589 C.ar    1  UNL1        0.0277
     17 CA        141.0581  142.1622  168.8274 C.ar    1  UNL1        0.1231
     18 N         141.3693  141.9316  167.3782 N.ar    1  UNL1       -0.2275
     19 C         142.1356  140.7115  166.9606 C.ar    1  UNL1        0.1345
     20 H         142.8059  140.4390  162.7568 H       1  UNL1        0.1578
     21 C         141.2020  141.4034  171.3080 C.3     1  UNL1        0.1652
     22 O         142.0773  142.3031  172.1291 O.3     1  UNL1       -0.3772
     23 H         142.9589  141.9074  172.2134 H       1  UNL1        0.2109
     24 C         140.2918  143.3822  169.2450 C.2     1  UNL1        0.2529
     25 O         140.9087  144.3671  170.1934 O.2     1  UNL1       -0.2815
     26 C         138.5251  141.3215  156.0508 C.3     1  UNL1        0.1063
     27 O         138.7888  141.0511  154.5991 O.3     1  UNL1       -0.3853
     28 C         139.9789  141.6838  155.9783 C.3     1  UNL1        0.0497
     29 C         140.6958  142.1581  157.2076 C.3     1  UNL1        0.0933
     30 N         139.9590  142.2700  158.5093 N.pl3   1  UNL1       -0.3067
     31 C         138.5052  141.9077  158.5818 C.3     1  UNL1        0.0933
     32 C         137.7882  141.4334  157.3525 C.3     1  UNL1        0.0497
     33 H         139.7173  141.2462  154.3973 H       1  UNL1        0.2103
     34 C         137.1629  140.8652  155.6191 C.3     1  UNL1        0.0994
     35 C         134.6511  141.4830  155.3764 C.3     1  UNL1        0.0897
     36 N         136.0976  141.8743  155.3082 N.3     1  UNL1       -0.2683
     37 C         136.4786  143.2746  154.9290 C.3     1  UNL1        0.0897
     38 C         140.4827  145.1973  158.9048 C.1     1  UNL1        0.1032
     39 N         140.0277  146.1867  157.8732 N.1     1  UNL1       -0.1907
@<TRIPOS>BOND
     1    35    36    1
     2    36    37    1
     3    36    34    1
     4    34    26    1
     5    26    27    1
     6    26    28    1
     7    28    29    1
     8    29    30    1
     9    30     1    1
    10     1     2   ar
    11     2     3   ar
    12     3     7    1
    13     7     8   am
    14     8     9    2
    15     8    10   am
    16    10    11    1
    17    11    12    1
    18    12    13    1
    19    13    14    1
    20    14    15   ar
    21    15    16   ar
    22    16    21    1
    23    21    22    1
    24    16    17   ar
    25    17    24    1
    26    24    25    2
    27    17    18   ar
    28    18    19   ar
    29     3     4   ar
    30     4     5   ar
    31     5     6   ar
    32     6    38    1
    33    38    39    3
    34    30    31    1
    35    31    32    1
    36    32    26    1
    37     6     1   ar
    38    19    10    1
    39    19    14   ar
    40    27    33    1
    41     7    20    1
    42    22    23    1
@<TRIPOS>MOLECULE
*****
 39 42 0 0 0
SMALL
GASTEIGER

@<TRIPOS>ATOM
      1 C         140.7917  143.2271  164.0297 C.ar    1  UNL1        0.0619
      2 C         141.7298  142.8254  162.9302 C.ar    1  UNL1        0.0497
      3 C         141.9034  143.7105  161.7318 C.ar    1  UNL1        0.1366
      4 N         141.1391  144.9974  161.6328 N.ar    1  UNL1       -0.2282
      5 C         140.2011  145.3991  162.7322 C.ar    1  UNL1        0.1118
      6 C         140.0275  144.5140  163.9307 C.ar    1  UNL1        0.1009
      7 N         142.8414  143.3088  160.6323 N.am    1  UNL1       -0.2531
      8 C         142.5100  142.1391  159.7537 C.2     1  UNL1        0.3135
      9 O         141.2406  141.3711  159.9746 O.2     1  UNL1       -0.2518
     10 N         143.4480  141.7374  158.6542 N.am    1  UNL1       -0.2282
     11 C         144.7174  142.5054  158.4334 C.3     1  UNL1        0.1015
     12 C         145.6553  142.1037  157.3339 C.3     1  UNL1        0.0268
     13 C         145.3239  140.9340  156.4553 C.3     1  UNL1        0.0310
     14 C         144.0546  140.1660  156.6762 C.ar    1  UNL1        0.0097
     15 C         143.7232  138.9963  155.7976 C.ar    1  UNL1       -0.0018
     16 C         142.4538  138.2282  156.0184 C.ar    1  UNL1        0.0277
     17 CA        141.5158  138.6299  157.1179 C.ar    1  UNL1        0.1231
     18 N         141.8472  139.7996  157.9965 N.ar    1  UNL1       -0.2275
     19 C         143.1166  140.5677  157.7756 C.ar    1  UNL1        0.1345
     20 H         143.6745  143.8129  160.4873 H       1  UNL1        0.1578
     21 C         142.1224  137.0585  155.1398 C.3     1  UNL1        0.1652
     22 O         143.1937  136.4180  154.3080 O.3     1  UNL1       -0.3772
     23 H         143.4987  137.0458  153.6344 H       1  UNL1        0.2109
     24 C         140.2464  137.8619  157.3388 C.2     1  UNL1        0.2529
     25 O         139.0142  138.2087  156.5568 O.2     1  UNL1       -0.2815
     26 C         140.2708  140.5717  167.6252 C.3     1  UNL1        0.1063
     27 O         139.3211  139.5452  168.1676 O.3     1  UNL1       -0.3853
     28 C         139.2572  140.5448  166.5198 C.3     1  UNL1        0.0497
     29 C         139.4309  141.4299  165.3213 C.3     1  UNL1        0.0933
     30 N         140.6181  142.3420  165.2282 N.pl3   1  UNL1       -0.3067
     31 C         141.6317  142.3689  166.3337 C.3     1  UNL1        0.0933
     32 C         141.4580  141.4838  167.5322 C.3     1  UNL1        0.0497
     33 H         138.5909  139.4175  167.5419 H       1  UNL1        0.2103
     34 C         140.9545  140.2421  168.9190 C.3     1  UNL1        0.0994
     35 C         141.9366  141.2066  171.1225 C.3     1  UNL1        0.0897
     36 N         140.8581  141.1868  170.0801 N.3     1  UNL1       -0.2683
     37 C         139.6832  142.1117  170.1990 C.3     1  UNL1        0.0897
     38 C         139.0895  144.9157  165.0301 C.1     1  UNL1        0.1032
     39 N         138.1515  145.3173  166.1297 N.1     1  UNL1       -0.1907
@<TRIPOS>BOND
     1    35    36    1
     2    36    37    1
     3    36    34    1
     4    34    26    1
     5    26    27    1
     6    26    28    1
     7    28    29    1
     8    29    30    1
     9    30     1    1
    10     1     2   ar
    11     2     3   ar
    12     3     7    1
    13     7     8   am
    14     8     9    2
    15     8    10   am
    16    10    11    1
    17    11    12    1
    18    12    13    1
    19    13    14    1
    20    14    15   ar
    21    15    16   ar
    22    16    21    1
    23    21    22    1
    24    16    17   ar
    25    17    24    1
    26    24    25    2
    27    17    18   ar
    28    18    19   ar
    29     3     4   ar
    30     4     5   ar
    31     5     6   ar
    32     6    38    1
    33    38    39    3
    34    30    31    1
    35    31    32    1
    36    32    26    1
    37     6     1   ar
    38    19    10    1
    39    19    14   ar
    40    27    33    1
    41     7    20    1
    42    22    23    1
@<TRIPOS>MOLECULE
*****
 39 42 0 0 0
SMALL
GASTEIGER

@<TRIPOS>ATOM
      1 C         143.4893  139.5530  156.3589 C.ar    1  UNL1        0.0619
      2 C         143.6580  140.0774  157.7542 C.ar    1  UNL1        0.0497
      3 C         143.9669  141.5282  157.9778 C.ar    1  UNL1        0.1366
      4 N         144.1070  142.4544  156.8063 N.ar    1  UNL1       -0.2282
      5 C         143.9383  141.9300  155.4111 C.ar    1  UNL1        0.1118
      6 C         143.6294  140.4793  155.1875 C.ar    1  UNL1        0.1009
      7 N         144.1357  142.0526  159.3729 N.am    1  UNL1       -0.2531
      8 C         142.9293  142.3755  160.2039 C.2     1  UNL1        0.3135
      9 O         141.5542  142.1740  159.6397 O.2     1  UNL1       -0.2518
     10 N         143.0981  142.9000  161.5991 N.am    1  UNL1       -0.2282
     11 C         144.4732  143.1016  162.1633 C.3     1  UNL1        0.1015
     12 C         144.6420  143.6260  163.5584 C.3     1  UNL1        0.0268
     13 C         143.4356  143.9489  164.3893 C.3     1  UNL1        0.0310
     14 C         142.0605  143.7473  163.8251 C.ar    1  UNL1        0.0097
     15 C         140.8541  144.0702  164.6560 C.ar    1  UNL1       -0.0018
     16 C         139.4790  143.8687  164.0918 C.ar    1  UNL1        0.0277
     17 CA        139.3102  143.3442  162.6966 C.ar    1  UNL1        0.1231
     18 N         140.5166  143.0213  161.8657 N.ar    1  UNL1       -0.2275
     19 C         141.8917  143.2229  162.4300 C.ar    1  UNL1        0.1345
     20 H         145.0382  142.1849  159.7433 H       1  UNL1        0.1578
     21 C         138.2726  144.1916  164.9227 C.3     1  UNL1        0.1652
     22 O         138.3075  145.3475  165.8780 O.3     1  UNL1       -0.3772
     23 H         138.9466  145.1642  166.5842 H       1  UNL1        0.2109
     24 C         137.9351  143.1426  162.1324 C.2     1  UNL1        0.2529
     25 O         137.3080  141.7801  162.1535 O.2     1  UNL1       -0.2815
     26 C         142.5626  135.2009  155.6879 C.3     1  UNL1        0.1063
     27 O         141.4107  134.2443  155.7770 O.3     1  UNL1       -0.3853
     28 C         141.4839  136.1347  156.1506 C.3     1  UNL1        0.0497
     29 C         141.7927  137.5854  156.3743 C.3     1  UNL1        0.0933
     30 N         143.1804  138.1023  156.1353 N.pl3   1  UNL1       -0.3067
     31 C         144.2593  137.1684  155.6726 C.3     1  UNL1        0.0933
     32 C         143.9504  135.7177  155.4489 C.3     1  UNL1        0.0497
     33 H         140.6184  134.7190  156.0730 H       1  UNL1        0.2103
     34 C         143.2414  133.9348  155.2562 C.3     1  UNL1        0.0994
     35 C         144.0078  133.5109  157.7022 C.3     1  UNL1        0.0897
     36 N         143.9464  133.0795  156.2668 N.3     1  UNL1       -0.2683
     37 C         144.5898  131.7928  155.8422 C.3     1  UNL1        0.0897
     38 C         143.4606  139.9548  153.7923 C.1     1  UNL1        0.1032
     39 N         143.2919  139.4303  152.3971 N.1     1  UNL1       -0.1907
@<TRIPOS>BOND
     1    35    36    1
     2    36    37    1
     3    36    34    1
     4    34    26    1
     5    26    27    1
     6    26    28    1
     7    28    29    1
     8    29    30    1
     9    30     1    1
    10     1     2   ar
    11     2     3   ar
    12     3     7    1
    13     7     8   am
    14     8     9    2
    15     8    10   am
    16    10    11    1
    17    11    12    1
    18    12    13    1
    19    13    14    1
    20    14    15   ar
    21    15    16   ar
    22    16    21    1
    23    21    22    1
    24    16    17   ar
    25    17    24    1
    26    24    25    2
    27    17    18   ar
    28    18    19   ar
    29     3     4   ar
    30     4     5   ar
    31     5     6   ar
    32     6    38    1
    33    38    39    3
    34    30    31    1
    35    31    32    1
    36    32    26    1
    37     6     1   ar
    38    19    10    1
    39    19    14   ar
    40    27    33    1
    41     7    20    1
    42    22    23    1
@<TRIPOS>MOLECULE
*****
 39 42 0 0 0
SMALL
GASTEIGER

@<TRIPOS>ATOM
      1 C         140.8576  141.0822  159.5840 C.ar    1  UNL1        0.0619
      2 C         140.2542  140.8860  160.9432 C.ar    1  UNL1        0.0497
      3 C         140.0981  139.5027  161.5019 C.ar    1  UNL1        0.1366
      4 N         140.5454  138.3156  160.7013 N.ar    1  UNL1       -0.2282
      5 C         141.1487  138.5119  159.3421 C.ar    1  UNL1        0.1118
      6 C         141.3049  139.8952  158.7835 C.ar    1  UNL1        0.1009
      7 N         139.4947  139.3064  162.8610 N.am    1  UNL1       -0.2531
      8 C         140.1569  139.9009  164.0686 C.2     1  UNL1        0.3135
      9 O         141.4224  140.6917  163.9169 O.2     1  UNL1       -0.2518
     10 N         139.5535  139.7046  165.4278 N.am    1  UNL1       -0.2282
     11 C         138.2879  138.9138  165.5794 C.3     1  UNL1        0.1015
     12 C         137.6846  138.7175  166.9386 C.3     1  UNL1        0.0268
     13 C         138.3467  139.3120  168.1461 C.3     1  UNL1        0.0310
     14 C         139.6123  140.1028  167.9945 C.ar    1  UNL1        0.0097
     15 C         140.2744  140.6973  169.2020 C.ar    1  UNL1       -0.0018
     16 C         141.5400  141.4881  169.0503 C.ar    1  UNL1        0.0277
     17 CA        142.1434  141.6844  167.6911 C.ar    1  UNL1        0.1231
     18 N         141.4812  141.0899  166.4836 N.ar    1  UNL1       -0.2275
     19 C         140.2156  140.2991  166.6353 C.ar    1  UNL1        0.1345
     20 H         138.6641  138.7874  162.9606 H       1  UNL1        0.1578
     21 C         142.2021  142.0826  170.2578 C.3     1  UNL1        0.1652
     22 O         142.0756  141.4075  171.5913 O.3     1  UNL1       -0.3772
     23 H         141.1507  141.4372  171.8822 H       1  UNL1        0.2109
     24 C         143.4089  142.4752  167.5395 C.2     1  UNL1        0.2529
     25 O         143.8903  142.8655  166.1734 O.2     1  UNL1       -0.2815
     26 C         141.3261  145.2321  157.9081 C.3     1  UNL1        0.1063
     27 O         142.3809  146.2808  157.7143 O.3     1  UNL1       -0.3853
     28 C         142.5080  144.5256  158.5028 C.3     1  UNL1        0.0497
     29 C         142.3519  143.1423  159.0615 C.3     1  UNL1        0.0933
     30 N         141.0138  142.4655  159.0254 N.pl3   1  UNL1       -0.3067
     31 C         139.8317  143.1720  158.4306 C.3     1  UNL1        0.0933
     32 C         139.9879  144.5553  157.8720 C.3     1  UNL1        0.0497
     33 H         143.2266  145.9568  158.0615 H       1  UNL1        0.2103
     34 C         140.5104  146.3029  157.2460 C.3     1  UNL1        0.0994
     35 C         138.8083  146.6034  155.3063 C.3     1  UNL1        0.0897
     36 N         140.1672  146.1919  155.7901 N.3     1  UNL1       -0.2683
     37 C         141.1829  145.6694  154.8178 C.3     1  UNL1        0.0897
     38 C         141.9082  140.0915  157.4243 C.1     1  UNL1        0.1032
     39 N         142.5116  140.2877  156.0650 N.1     1  UNL1       -0.1907
@<TRIPOS>BOND
     1    35    36    1
     2    36    37    1
     3    36    34    1
     4    34    26    1
     5    26    27    1
     6    26    28    1
     7    28    29    1
     8    29    30    1
     9    30     1    1
    10     1     2   ar
    11     2     3   ar
    12     3     7    1
    13     7     8   am
    14     8     9    2
    15     8    10   am
    16    10    11    1
    17    11    12    1
    18    12    13    1
    19    13    14    1
    20    14    15   ar
    21    15    16   ar
    22    16    21    1
    23    21    22    1
    24    16    17   ar
    25    17    24    1
    26    24    25    2
    27    17    18   ar
    28    18    19   ar
    29     3     4   ar
    30     4     5   ar
    31     5     6   ar
    32     6    38    1
    33    38    39    3
    34    30    31    1
    35    31    32    1
    36    32    26    1
    37     6     1   ar
    38    19    10    1
    39    19    14   ar
    40    27    33    1
    41     7    20    1
    42    22    23    1
@<TRIPOS>MOLECULE
*****
 39 42 0 0 0
SMALL
GASTEIGER

@<TRIPOS>ATOM
      1 C         140.9212  139.7414  163.5778 C.ar    1  UNL1        0.0619
      2 C         139.9600  140.0464  162.4673 C.ar    1  UNL1        0.0497
      3 C         140.3817  139.8647  161.0393 C.ar    1  UNL1        0.1366
      4 N         141.7647  139.3780  160.7218 N.ar    1  UNL1       -0.2282
      5 C         142.7258  139.0731  161.8323 C.ar    1  UNL1        0.1118
      6 C         142.3041  139.2548  163.2603 C.ar    1  UNL1        0.1009
      7 N         139.4206  140.1697  159.9289 N.am    1  UNL1       -0.2531
      8 C         139.5533  141.4455  159.1513 C.2     1  UNL1        0.3135
      9 O         140.6472  142.4164  159.4842 O.2     1  UNL1       -0.2518
     10 N         138.5921  141.7504  158.0407 N.am    1  UNL1       -0.2282
     11 C         137.4983  140.7796  157.7079 C.3     1  UNL1        0.1015
     12 C         136.5371  141.0845  156.5974 C.3     1  UNL1        0.0268
     13 C         136.6699  142.3604  155.8198 C.3     1  UNL1        0.0310
     14 C         137.7637  143.3312  156.1527 C.ar    1  UNL1        0.0097
     15 C         137.8964  144.6071  155.3751 C.ar    1  UNL1       -0.0018
     16 C         138.9903  145.5779  155.7080 C.ar    1  UNL1        0.0277
     17 CA        139.9515  145.2730  156.8185 C.ar    1  UNL1        0.1231
     18 N         139.8188  143.9972  157.5961 N.ar    1  UNL1       -0.2275
     19 C         138.7248  143.0263  157.2632 C.ar    1  UNL1        0.1345
     20 H         138.7027  139.5325  159.7104 H       1  UNL1        0.1578
     21 C         139.1230  146.8538  154.9304 C.3     1  UNL1        0.1652
     22 O         138.5169  148.1203  155.4582 O.3     1  UNL1       -0.3772
     23 H         137.5506  148.0364  155.4687 H       1  UNL1        0.2109
     24 C         141.0453  146.2439  157.1514 C.2     1  UNL1        0.2529
     25 O         142.2365  145.7896  157.9420 O.2     1  UNL1       -0.2815
     26 C         139.6561  140.2864  167.8618 C.3     1  UNL1        0.1063
     27 O         138.7176  139.6886  168.8677 O.3     1  UNL1       -0.3853
     28 C         139.0378  139.2026  167.0292 C.3     1  UNL1        0.0497
     29 C         139.4595  139.0209  165.6013 C.3     1  UNL1        0.0933
     30 N         140.4995  139.9231  165.0058 N.pl3   1  UNL1       -0.3067
     31 C         141.1178  141.0069  165.8383 C.3     1  UNL1        0.0933
     32 C         140.6961  141.1886  167.2663 C.3     1  UNL1        0.0497
     33 H         138.2335  138.9530  168.4611 H       1  UNL1        0.2103
     34 C         139.9484  141.1626  169.0437 C.3     1  UNL1        0.0994
     35 C         141.8220  142.0446  170.6127 C.3     1  UNL1        0.0897
     36 N         141.1672  140.9106  169.8809 N.3     1  UNL1       -0.2683
     37 C         141.7313  139.5248  169.9863 C.3     1  UNL1        0.0897
     38 C         143.2652  138.9498  164.3707 C.1     1  UNL1        0.1032
     39 N         144.2263  138.6448  165.4813 N.1     1  UNL1       -0.1907
@<TRIPOS>BOND
     1    35    36    1
     2    36    37    1
     3    36    34    1
     4    34    26    1
     5    26    27    1
     6    26    28    1
     7    28    29    1
     8    29    30    1
     9    30     1    1
    10     1     2   ar
    11     2     3   ar
    12     3     7    1
    13     7     8   am
    14     8     9    2
    15     8    10   am
    16    10    11    1
    17    11    12    1
    18    12    13    1
    19    13    14    1
    20    14    15   ar
    21    15    16   ar
    22    16    21    1
    23    21    22    1
    24    16    17   ar
    25    17    24    1
    26    24    25    2
    27    17    18   ar
    28    18    19   ar
    29     3     4   ar
    30     4     5   ar
    31     5     6   ar
    32     6    38    1
    33    38    39    3
    34    30    31    1
    35    31    32    1
    36    32    26    1
    37     6     1   ar
    38    19    10    1
    39    19    14   ar
    40    27    33    1
    41     7    20    1
    42    22    23    1
@<TRIPOS>MOLECULE
*****
 39 42 0 0 0
SMALL
GASTEIGER

@<TRIPOS>ATOM
      1 C         141.0788  139.6837  159.0429 C.ar    1  UNL1        0.0619
      2 C         141.4160  140.3878  160.3238 C.ar    1  UNL1        0.0497
      3 C         142.4550  139.8165  161.2427 C.ar    1  UNL1        0.1366
      4 N         143.1566  138.5411  160.8806 N.ar    1  UNL1       -0.2282
      5 C         142.8194  137.8370  159.5998 C.ar    1  UNL1        0.1118
      6 C         141.7805  138.4083  158.6810 C.ar    1  UNL1        0.1009
      7 N         142.7922  140.5206  162.5235 N.am    1  UNL1       -0.2531
      8 C         141.9216  140.3382  163.7313 C.2     1  UNL1        0.3135
      9 O         140.7138  139.4518  163.6583 O.2     1  UNL1       -0.2518
     10 N         142.2590  141.0424  165.0122 N.am    1  UNL1       -0.2282
     11 C         143.4668  141.9288  165.0851 C.3     1  UNL1        0.1015
     12 C         143.8040  142.6329  166.3659 C.3     1  UNL1        0.0268
     13 C         142.9335  142.4505  167.5738 C.3     1  UNL1        0.0310
     14 C         141.7256  141.5641  167.5008 C.ar    1  UNL1        0.0097
     15 C         140.8551  141.3817  168.7086 C.ar    1  UNL1       -0.0018
     16 C         139.6473  140.4953  168.6357 C.ar    1  UNL1        0.0277
     17 CA        139.3100  139.7911  167.3548 C.ar    1  UNL1        0.1231
     18 N         140.1805  139.9735  166.1470 N.ar    1  UNL1       -0.2275
     19 C         141.3884  140.8600  166.2200 C.ar    1  UNL1        0.1345
     20 H         143.5849  141.1024  162.5714 H       1  UNL1        0.1578
     21 C         138.7767  140.3129  169.8435 C.3     1  UNL1        0.1652
     22 O         139.2843  139.5391  171.0239 O.3     1  UNL1       -0.3772
     23 H         139.4095  138.6107  170.7724 H       1  UNL1        0.2109
     24 C         138.1022  138.9047  167.2818 C.2     1  UNL1        0.2529
     25 O         138.0146  137.8416  166.2272 O.2     1  UNL1       -0.2815
     26 C         137.9621  141.3976  156.2864 C.3     1  UNL1        0.1063
     27 O         137.8595  142.1228  154.9774 O.3     1  UNL1       -0.3853
     28 C         139.4156  141.4993  155.9305 C.3     1  UNL1        0.0497
     29 C         140.4546  140.9280  156.8494 C.3     1  UNL1        0.0933
     30 N         140.0399  140.2550  158.1241 N.pl3   1  UNL1       -0.3067
     31 C         138.5862  140.1532  158.4801 C.3     1  UNL1        0.0933
     32 C         137.5473  140.7245  157.5612 C.3     1  UNL1        0.0497
     33 H         138.7483  142.2641  154.6156 H       1  UNL1        0.2103
     34 C         136.4728  141.5477  156.1877 C.3     1  UNL1        0.0994
     35 C         136.1477  139.4371  154.7080 C.3     1  UNL1        0.0897
     36 N         135.6298  140.3885  155.7457 N.3     1  UNL1       -0.2683
     37 C         134.2690  140.1805  156.3414 C.3     1  UNL1        0.0897
     38 C         141.4432  137.7043  157.4002 C.1     1  UNL1        0.1032
     39 N         141.1060  137.0001  156.1193 N.1     1  UNL1       -0.1907
@<TRIPOS>BOND
     1    35    36    1
     2    36    37    1
     3    36    34    1
     4    34    26    1
     5    26    27    1
     6    26    28    1
     7    28    29    1
     8    29    30    1
     9    30     1    1
    10     1     2   ar
    11     2     3   ar
    12     3     7    1
    13     7     8   am
    14     8     9    2
    15     8    10   am
    16    10    11    1
    17    11    12    1
    18    12    13    1
    19    13    14    1
    20    14    15   ar
    21    15    16   ar
    22    16    21    1
    23    21    22    1
    24    16    17   ar
    25    17    24    1
    26    24    25    2
    27    17    18   ar
    28    18    19   ar
    29     3     4   ar
    30     4     5   ar
    31     5     6   ar
    32     6    38    1
    33    38    39    3
    34    30    31    1
    35    31    32    1
    36    32    26    1
    37     6     1   ar
    38    19    10    1
    39    19    14   ar
    40    27    33    1
    41     7    20    1
    42    22    23    1
