@<TRIPOS>MOLECULE
*****
 31 34 0 0 0
SMALL
GASTEIGER

@<TRIPOS>ATOM
      1 C         139.2600  138.6042  162.7816 C.3     1  UNL1        0.0559
      2 C         139.4105  139.6489  163.8474 C.3     1  UNL1        0.2097
      3 N         139.5657  139.3929  165.3172 N.pl3   1  UNL1       -0.2182
      4 C         139.6833  140.7188  166.0088 C.2     1  UNL1        0.3176
      5 N         139.6008  141.7942  164.9663 N.2     1  UNL1       -0.0615
      6 C         139.4322  141.1330  163.6306 C.3     1  UNL1        0.2514
      7 H         139.5867  138.5098  165.7518 H       1  UNL1        0.2923
      8 C         139.8535  140.9319  167.4838 C.ar    1  UNL1        0.0992
      9 C         139.3671  139.8950  168.4524 C.ar    1  UNL1        0.0138
     10 C         139.5373  140.1080  169.9274 C.ar    1  UNL1        0.0612
     11 C         140.1940  141.3580  170.4338 C.ar    1  UNL1        0.2649
     12 O         140.3642  141.5710  171.9088 O.2     1  UNL1       -0.2668
     13 N         140.6804  142.3949  169.4652 N.ar    1  UNL1       -0.2390
     14 C         140.5102  142.1818  167.9902 C.ar    1  UNL1        0.0907
     15 C         141.3370  143.6448  169.9716 C.3     1  UNL1        0.4163
     16 F         142.7894  143.6301  170.3463 F       1  UNL1       -0.1724
     17 F         140.5414  144.9095  170.1032 F       1  UNL1       -0.1724
     18 C         139.2607  140.7660  162.1863 C.ar    1  UNL1        0.0297
     19 C         137.8848  140.5848  161.6169 C.ar    1  UNL1        0.0025
     20 C         137.7132  140.2177  160.1726 C.ar    1  UNL1        0.0295
     21 C         138.9174  140.0319  159.2978 C.ar    1  UNL1        0.1401
     22 F         138.7459  139.6648  157.8536 F       1  UNL1       -0.2042
     23 C         140.2934  140.2131  159.8673 C.ar    1  UNL1        0.0295
     24 C         140.4649  140.5801  161.3115 C.ar    1  UNL1        0.0025
     25 C         139.4180  142.5404  163.1117 C.ar    1  UNL1        0.0488
     26 C         140.7030  143.2093  162.7227 C.ar    1  UNL1        0.0057
     27 C         140.6889  144.6166  162.2039 C.ar    1  UNL1        0.0495
     28 C         139.3897  145.3550  162.0741 C.ar    1  UNL1        0.2223
     29 F         139.3756  146.7624  161.5553 F       1  UNL1       -0.1832
     30 N         138.1048  144.6862  162.4632 N.ar    1  UNL1       -0.2166
     31 C         138.1189  143.2788  162.9820 C.ar    1  UNL1        0.1014
@<TRIPOS>BOND
     1     2     1    1
     2     2     3    1
     3     3     4    1
     4     4     8    1
     5     8     9   ar
     6     9    10   ar
     7    10    11   ar
     8    11    12    2
     9    11    13   ar
    10    13    15    1
    11    15    16    1
    12    15    17    1
    13    13    14   ar
    14     4     5    2
    15     5     6    1
    16     6    18    1
    17    18    19   ar
    18    19    20   ar
    19    20    21   ar
    20    21    22    1
    21    21    23   ar
    22    23    24   ar
    23     6    25    1
    24    25    26   ar
    25    26    27   ar
    26    27    28   ar
    27    28    29    1
    28    28    30   ar
    29    30    31   ar
    30     6     2    1
    31    24    18   ar
    32    31    25   ar
    33    14     8   ar
    34     3     7    1
@<TRIPOS>MOLECULE
*****
 31 34 0 0 0
SMALL
GASTEIGER

@<TRIPOS>ATOM
      1 C         144.3527  139.9437  163.0117 C.3     1  UNL1        0.0559
      2 C         143.5116  140.6116  164.0588 C.3     1  UNL1        0.2097
      3 N         143.3722  140.1763  165.4874 N.pl3   1  UNL1       -0.2182
      4 C         142.4367  141.1277  166.1728 C.2     1  UNL1        0.3176
      5 N         141.9979  142.1510  165.1677 N.2     1  UNL1       -0.0615
      6 C         142.6622  141.8321  163.8612 C.3     1  UNL1        0.2514
      7 H         143.8167  139.4020  165.9025 H       1  UNL1        0.2923
      8 C         142.0142  141.0665  167.6108 C.ar    1  UNL1        0.0992
      9 C         142.3124  139.8451  168.4288 C.ar    1  UNL1        0.0138
     10 C         141.8899  139.7839  169.8667 C.ar    1  UNL1        0.0612
     11 C         141.1691  140.9441  170.4866 C.ar    1  UNL1        0.2649
     12 O         140.7466  140.8829  171.9247 O.2     1  UNL1       -0.2668
     13 N         140.8709  142.1655  169.6687 N.ar    1  UNL1       -0.2390
     14 C         141.2934  142.2267  168.2307 C.ar    1  UNL1        0.0907
     15 C         140.1501  143.3258  170.2886 C.3     1  UNL1        0.4163
     16 F         138.9360  143.0880  171.1366 F       1  UNL1       -0.1724
     17 F         140.6435  144.7238  170.0605 F       1  UNL1       -0.1724
     18 C         143.1712  141.7653  162.4518 C.ar    1  UNL1        0.0297
     19 C         144.3538  142.5918  162.0416 C.ar    1  UNL1        0.0025
     20 C         144.8629  142.5251  160.6321 C.ar    1  UNL1        0.0295
     21 C         144.1894  141.6319  159.6330 C.ar    1  UNL1        0.1401
     22 F         144.6984  141.5652  158.2236 F       1  UNL1       -0.2042
     23 C         143.0066  140.8053  160.0432 C.ar    1  UNL1        0.0295
     24 C         142.4976  140.8721  161.4526 C.ar    1  UNL1        0.0025
     25 C         141.9193  143.0385  163.3689 C.ar    1  UNL1        0.0488
     26 C         142.3834  144.4128  163.7511 C.ar    1  UNL1        0.0057
     27 C         141.6404  145.6193  163.2587 C.ar    1  UNL1        0.0495
     28 C         140.4333  145.4515  162.3842 C.ar    1  UNL1        0.2223
     29 F         139.6904  146.6581  161.8919 F       1  UNL1       -0.1832
     30 N         139.9692  144.0774  162.0021 N.ar    1  UNL1       -0.2166
     31 C         140.7122  142.8708  162.4944 C.ar    1  UNL1        0.1014
@<TRIPOS>BOND
     1     2     1    1
     2     2     3    1
     3     3     4    1
     4     4     8    1
     5     8     9   ar
     6     9    10   ar
     7    10    11   ar
     8    11    12    2
     9    11    13   ar
    10    13    15    1
    11    15    16    1
    12    15    17    1
    13    13    14   ar
    14     4     5    2
    15     5     6    1
    16     6    18    1
    17    18    19   ar
    18    19    20   ar
    19    20    21   ar
    20    21    22    1
    21    21    23   ar
    22    23    24   ar
    23     6    25    1
    24    25    26   ar
    25    26    27   ar
    26    27    28   ar
    27    28    29    1
    28    28    30   ar
    29    30    31   ar
    30     6     2    1
    31    24    18   ar
    32    31    25   ar
    33    14     8   ar
    34     3     7    1
@<TRIPOS>MOLECULE
*****
 31 34 0 0 0
SMALL
GASTEIGER

@<TRIPOS>ATOM
      1 C         144.6036  140.7452  163.3383 C.3     1  UNL1        0.0559
      2 C         143.4785  140.5664  164.3140 C.3     1  UNL1        0.2097
      3 N         143.5442  140.8177  165.7913 N.pl3   1  UNL1       -0.2182
      4 C         142.1964  140.5114  166.3741 C.2     1  UNL1        0.3176
      5 N         141.2976  140.0708  165.2569 N.2     1  UNL1       -0.0615
      6 C         142.0899  140.1048  163.9837 C.3     1  UNL1        0.2514
      7 H         144.3334  141.1290  166.2908 H       1  UNL1        0.2923
      8 C         141.8144  140.6257  167.8202 C.ar    1  UNL1        0.0992
      9 C         142.0920  139.4910  168.7612 C.ar    1  UNL1        0.0138
     10 C         141.7101  139.6053  170.2072 C.ar    1  UNL1        0.0612
     11 C         141.0505  140.8543  170.7122 C.ar    1  UNL1        0.2649
     12 O         140.6685  140.9686  172.1583 O.2     1  UNL1       -0.2668
     13 N         140.7728  141.9889  169.7712 N.ar    1  UNL1       -0.2390
     14 C         141.1548  141.8746  168.3252 C.ar    1  UNL1        0.0907
     15 C         140.1132  143.2379  170.2763 C.3     1  UNL1        0.4163
     16 F         138.8517  143.1464  171.0824 F       1  UNL1       -0.1724
     17 F         140.7152  144.5783  169.9751 F       1  UNL1       -0.1724
     18 C         142.6150  140.0394  162.5802 C.ar    1  UNL1        0.0297
     19 C         142.5410  141.2479  161.6947 C.ar    1  UNL1        0.0025
     20 C         143.0661  141.1826  160.2911 C.ar    1  UNL1        0.0295
     21 C         143.6651  139.9088  159.7730 C.ar    1  UNL1        0.1401
     22 F         144.1901  139.8434  158.3694 F       1  UNL1       -0.2042
     23 C         143.7391  138.7001  160.6584 C.ar    1  UNL1        0.0295
     24 C         143.2140  138.7655  162.0620 C.ar    1  UNL1        0.0025
     25 C         140.8113  139.6295  163.3600 C.ar    1  UNL1        0.0488
     26 C         140.4662  138.1698  163.3760 C.ar    1  UNL1        0.0057
     27 C         139.1875  137.6946  162.7522 C.ar    1  UNL1        0.0495
     28 C         138.2539  138.6790  162.1125 C.ar    1  UNL1        0.2223
     29 F         136.9751  138.2036  161.4887 F       1  UNL1       -0.1832
     30 N         138.5989  140.1386  162.0965 N.ar    1  UNL1       -0.2166
     31 C         139.8777  140.6139  162.7203 C.ar    1  UNL1        0.1014
@<TRIPOS>BOND
     1     2     1    1
     2     2     3    1
     3     3     4    1
     4     4     8    1
     5     8     9   ar
     6     9    10   ar
     7    10    11   ar
     8    11    12    2
     9    11    13   ar
    10    13    15    1
    11    15    16    1
    12    15    17    1
    13    13    14   ar
    14     4     5    2
    15     5     6    1
    16     6    18    1
    17    18    19   ar
    18    19    20   ar
    19    20    21   ar
    20    21    22    1
    21    21    23   ar
    22    23    24   ar
    23     6    25    1
    24    25    26   ar
    25    26    27   ar
    26    27    28   ar
    27    28    29    1
    28    28    30   ar
    29    30    31   ar
    30     6     2    1
    31    24    18   ar
    32    31    25   ar
    33    14     8   ar
    34     3     7    1
@<TRIPOS>MOLECULE
*****
 31 34 0 0 0
SMALL
GASTEIGER

@<TRIPOS>ATOM
      1 C         144.7187  141.4976  162.7345 C.3     1  UNL1        0.0559
      2 C         143.7347  141.2357  163.8359 C.3     1  UNL1        0.2097
      3 N         143.8748  141.6694  165.2650 N.pl3   1  UNL1       -0.2182
      4 C         142.6645  141.1959  166.0139 C.2     1  UNL1        0.3176
      5 N         141.7763  140.4697  165.0477 N.2     1  UNL1       -0.0615
      6 C         142.4376  140.4942  163.7016 C.3     1  UNL1        0.2514
      7 H         144.6289  142.1758  165.6447 H       1  UNL1        0.2923
      8 C         142.3905  141.4110  167.4730 C.ar    1  UNL1        0.0992
      9 C         143.2953  142.2901  168.2843 C.ar    1  UNL1        0.0138
     10 C         143.0213  142.5052  169.7433 C.ar    1  UNL1        0.0612
     11 C         141.8425  141.8411  170.3909 C.ar    1  UNL1        0.2649
     12 O         141.5686  142.0561  171.8500 O.2     1  UNL1       -0.2668
     13 N         140.9377  140.9619  169.5795 N.ar    1  UNL1       -0.2390
     14 C         141.2117  140.7469  168.1206 C.ar    1  UNL1        0.0907
     15 C         139.7589  140.2978  170.2271 C.3     1  UNL1        0.4163
     16 F         139.9163  139.6206  171.5562 F       1  UNL1       -0.1724
     17 F         138.4228  140.3109  169.5456 F       1  UNL1       -0.1724
     18 C         142.8457  140.3579  162.2647 C.ar    1  UNL1        0.0297
     19 C         143.6558  139.1748  161.8241 C.ar    1  UNL1        0.0025
     20 C         144.0639  139.0384  160.3871 C.ar    1  UNL1        0.0295
     21 C         143.6619  140.0851  159.3908 C.ar    1  UNL1        0.1401
     22 F         144.0700  139.9487  157.9538 F       1  UNL1       -0.2042
     23 C         142.8518  141.2683  159.8313 C.ar    1  UNL1        0.0295
     24 C         142.4437  141.4046  161.2683 C.ar    1  UNL1        0.0025
     25 C         141.2259  139.7243  163.2669 C.ar    1  UNL1        0.0488
     26 C         139.9562  140.4498  162.9330 C.ar    1  UNL1        0.0057
     27 C         138.7446  139.6798  162.4983 C.ar    1  UNL1        0.0495
     28 C         138.8026  138.1843  162.3976 C.ar    1  UNL1        0.2223
     29 F         137.5908  137.4144  161.9628 F       1  UNL1       -0.1832
     30 N         140.0722  137.4588  162.7314 N.ar    1  UNL1       -0.2166
     31 C         141.2840  138.2288  163.1661 C.ar    1  UNL1        0.1014
@<TRIPOS>BOND
     1     2     1    1
     2     2     3    1
     3     3     4    1
     4     4     8    1
     5     8     9   ar
     6     9    10   ar
     7    10    11   ar
     8    11    12    2
     9    11    13   ar
    10    13    15    1
    11    15    16    1
    12    15    17    1
    13    13    14   ar
    14     4     5    2
    15     5     6    1
    16     6    18    1
    17    18    19   ar
    18    19    20   ar
    19    20    21   ar
    20    21    22    1
    21    21    23   ar
    22    23    24   ar
    23     6    25    1
    24    25    26   ar
    25    26    27   ar
    26    27    28   ar
    27    28    29    1
    28    28    30   ar
    29    30    31   ar
    30     6     2    1
    31    24    18   ar
    32    31    25   ar
    33    14     8   ar
    34     3     7    1
@<TRIPOS>MOLECULE
*****
 31 34 0 0 0
SMALL
GASTEIGER

@<TRIPOS>ATOM
      1 C         137.3839  141.6489  163.0022 C.3     1  UNL1        0.0559
      2 C         138.4358  141.2131  163.9787 C.3     1  UNL1        0.2097
      3 N         138.4457  141.5008  165.4508 N.pl3   1  UNL1       -0.2182
      4 C         139.6786  140.8787  166.0364 C.2     1  UNL1        0.3176
      5 N         140.4307  140.2065  164.9262 N.2     1  UNL1       -0.0615
      6 C         139.6627  140.4132  163.6545 C.3     1  UNL1        0.2514
      7 H         137.7629  142.0088  165.9457 H       1  UNL1        0.2923
      8 C         140.0875  140.9213  167.4790 C.ar    1  UNL1        0.0992
      9 C         139.3559  140.0901  168.4908 C.ar    1  UNL1        0.0138
     10 C         139.7648  140.1328  169.9333 C.ar    1  UNL1        0.0612
     11 C         140.9055  141.0065  170.3640 C.ar    1  UNL1        0.2649
     12 O         141.3144  141.0491  171.8066 O.2     1  UNL1       -0.2668
     13 N         141.6371  141.8377  169.3522 N.ar    1  UNL1       -0.2390
     14 C         141.2282  141.7950  167.9097 C.ar    1  UNL1        0.0907
     15 C         142.7777  142.7114  169.7829 C.3     1  UNL1        0.4163
     16 F         142.5059  143.9994  170.5021 F       1  UNL1       -0.1724
     17 F         144.1902  142.2973  169.4945 F       1  UNL1       -0.1724
     18 C         139.1277  140.4545  162.2537 C.ar    1  UNL1        0.0297
     19 C         138.0797  139.4721  161.8219 C.ar    1  UNL1        0.0025
     20 C         137.5446  139.5133  160.4211 C.ar    1  UNL1        0.0295
     21 C         138.0576  140.5370  159.4523 C.ar    1  UNL1        0.1401
     22 F         137.5227  140.5782  158.0515 F       1  UNL1       -0.2042
     23 C         139.1057  141.5195  159.8841 C.ar    1  UNL1        0.0295
     24 C         139.6407  141.4782  161.2848 C.ar    1  UNL1        0.0025
     25 C         140.7776  139.6219  163.0374 C.ar    1  UNL1        0.0488
     26 C         142.1107  140.2661  162.7969 C.ar    1  UNL1        0.0057
     27 C         143.2257  139.4748  162.1799 C.ar    1  UNL1        0.0495
     28 C         143.0075  138.0394  161.8034 C.ar    1  UNL1        0.2223
     29 F         144.1225  137.2481  161.1863 F       1  UNL1       -0.1832
     30 N         141.6745  137.3952  162.0439 N.ar    1  UNL1       -0.2166
     31 C         140.5595  138.1864  162.6610 C.ar    1  UNL1        0.1014
@<TRIPOS>BOND
     1     2     1    1
     2     2     3    1
     3     3     4    1
     4     4     8    1
     5     8     9   ar
     6     9    10   ar
     7    10    11   ar
     8    11    12    2
     9    11    13   ar
    10    13    15    1
    11    15    16    1
    12    15    17    1
    13    13    14   ar
    14     4     5    2
    15     5     6    1
    16     6    18    1
    17    18    19   ar
    18    19    20   ar
    19    20    21   ar
    20    21    22    1
    21    21    23   ar
    22    23    24   ar
    23     6    25    1
    24    25    26   ar
    25    26    27   ar
    26    27    28   ar
    27    28    29    1
    28    28    30   ar
    29    30    31   ar
    30     6     2    1
    31    24    18   ar
    32    31    25   ar
    33    14     8   ar
    34     3     7    1
@<TRIPOS>MOLECULE
*****
 31 34 0 0 0
SMALL
GASTEIGER

@<TRIPOS>ATOM
      1 C         141.6526  145.3115  163.5857 C.3     1  UNL1        0.0559
      2 C         141.2540  144.8546  162.2137 C.3     1  UNL1        0.2097
      3 N         141.5785  145.5489  160.9242 N.pl3   1  UNL1       -0.2182
      4 C         140.9860  144.7466  159.8039 C.2     1  UNL1        0.3176
      5 N         140.2952  143.5564  160.4009 N.2     1  UNL1       -0.0615
      6 C         140.4609  143.6232  161.8902 C.3     1  UNL1        0.2514
      7 H         142.0906  146.3844  160.8298 H       1  UNL1        0.2923
      8 C         141.0695  145.0765  158.3429 C.ar    1  UNL1        0.0992
      9 C         142.2231  144.5753  157.5256 C.ar    1  UNL1        0.0138
     10 C         142.3066  144.9052  156.0648 C.ar    1  UNL1        0.0612
     11 C         141.2366  145.7364  155.4213 C.ar    1  UNL1        0.2649
     12 O         141.3201  146.0664  153.9603 O.2     1  UNL1       -0.2668
     13 N         140.0830  146.2377  156.2386 N.ar    1  UNL1       -0.2390
     14 C         139.9995  145.9077  157.6994 C.ar    1  UNL1        0.0907
     15 C         139.0130  147.0689  155.5950 C.3     1  UNL1        0.4163
     16 F         139.1281  148.5644  155.5871 F       1  UNL1       -0.1724
     17 F         137.8278  146.4045  154.9595 F       1  UNL1       -0.1724
     18 C         140.4607  143.4238  163.3769 C.ar    1  UNL1        0.0297
     19 C         139.3531  143.9971  164.2103 C.ar    1  UNL1        0.0025
     20 C         139.3529  143.7978  165.6971 C.ar    1  UNL1        0.0295
     21 C         140.4602  143.0252  166.3503 C.ar    1  UNL1        0.1401
     22 F         140.4601  142.8258  167.8370 F       1  UNL1       -0.2042
     23 C         141.5679  142.4518  165.5168 C.ar    1  UNL1        0.0295
     24 C         141.5681  142.6512  164.0301 C.ar    1  UNL1        0.0025
     25 C         139.6677  142.3501  161.8776 C.ar    1  UNL1        0.0488
     26 C         140.3730  141.0266  161.9093 C.ar    1  UNL1        0.0057
     27 C         139.5799  139.7536  161.8967 C.ar    1  UNL1        0.0495
     28 C         138.0814  139.8040  161.8523 C.ar    1  UNL1        0.2223
     29 F         137.2882  138.5308  161.8397 F       1  UNL1       -0.1832
     30 N         137.3761  141.1273  161.8206 N.ar    1  UNL1       -0.2166
     31 C         138.1692  142.4005  161.8332 C.ar    1  UNL1        0.1014
@<TRIPOS>BOND
     1     2     1    1
     2     2     3    1
     3     3     4    1
     4     4     8    1
     5     8     9   ar
     6     9    10   ar
     7    10    11   ar
     8    11    12    2
     9    11    13   ar
    10    13    15    1
    11    15    16    1
    12    15    17    1
    13    13    14   ar
    14     4     5    2
    15     5     6    1
    16     6    18    1
    17    18    19   ar
    18    19    20   ar
    19    20    21   ar
    20    21    22    1
    21    21    23   ar
    22    23    24   ar
    23     6    25    1
    24    25    26   ar
    25    26    27   ar
    26    27    28   ar
    27    28    29    1
    28    28    30   ar
    29    30    31   ar
    30     6     2    1
    31    24    18   ar
    32    31    25   ar
    33    14     8   ar
    34     3     7    1
@<TRIPOS>MOLECULE
*****
 31 34 0 0 0
SMALL
GASTEIGER

@<TRIPOS>ATOM
      1 C         137.6778  142.2109  162.9997 C.3     1  UNL1        0.0559
      2 C         138.7458  141.8350  163.9837 C.3     1  UNL1        0.2097
      3 N         138.8330  142.2948  165.4088 N.pl3   1  UNL1       -0.2182
      4 C         140.0552  141.6773  166.0211 C.2     1  UNL1        0.3176
      5 N         140.7233  140.8358  164.9745 N.2     1  UNL1       -0.0615
      6 C         139.9141  140.9332  163.7153 C.3     1  UNL1        0.2514
      7 H         138.1994  142.8963  165.8625 H       1  UNL1        0.2923
      8 C         140.5264  141.8678  167.4324 C.ar    1  UNL1        0.0992
      9 C         140.1905  143.1291  168.1715 C.ar    1  UNL1        0.0138
     10 C         140.6618  143.3195  169.5827 C.ar    1  UNL1        0.0612
     11 C         141.4690  142.2487  170.2549 C.ar    1  UNL1        0.2649
     12 O         141.9402  142.4392  171.6662 O.2     1  UNL1       -0.2668
     13 N         141.8049  140.9874  169.5158 N.ar    1  UNL1       -0.2390
     14 C         141.3336  140.7969  168.1046 C.ar    1  UNL1        0.0907
     15 C         142.6120  139.9166  170.1880 C.3     1  UNL1        0.4163
     16 F         143.9110  140.2628  170.8533 F       1  UNL1       -0.1724
     17 F         142.1202  138.4995  170.1948 F       1  UNL1       -0.1724
     18 C         139.3233  140.8381  162.3398 C.ar    1  UNL1        0.0297
     19 C         139.8053  141.7511  161.2517 C.ar    1  UNL1        0.0025
     20 C         139.2145  141.6559  159.8762 C.ar    1  UNL1        0.0295
     21 C         138.1417  140.6478  159.5889 C.ar    1  UNL1        0.1401
     22 F         137.5508  140.5527  158.2134 F       1  UNL1       -0.2042
     23 C         137.6595  139.7347  160.6771 C.ar    1  UNL1        0.0295
     24 C         138.2504  139.8299  162.0525 C.ar    1  UNL1        0.0025
     25 C         140.9588  140.0116  163.1593 C.ar    1  UNL1        0.0488
     26 C         140.6821  138.5411  163.0535 C.ar    1  UNL1        0.0057
     27 C         141.7269  137.6195  162.4975 C.ar    1  UNL1        0.0495
     28 C         143.0483  138.1683  162.0474 C.ar    1  UNL1        0.2223
     29 F         144.0930  137.2466  161.4914 F       1  UNL1       -0.1832
     30 N         143.3250  139.6387  162.1532 N.ar    1  UNL1       -0.2166
     31 C         142.2802  140.5604  162.7092 C.ar    1  UNL1        0.1014
@<TRIPOS>BOND
     1     2     1    1
     2     2     3    1
     3     3     4    1
     4     4     8    1
     5     8     9   ar
     6     9    10   ar
     7    10    11   ar
     8    11    12    2
     9    11    13   ar
    10    13    15    1
    11    15    16    1
    12    15    17    1
    13    13    14   ar
    14     4     5    2
    15     5     6    1
    16     6    18    1
    17    18    19   ar
    18    19    20   ar
    19    20    21   ar
    20    21    22    1
    21    21    23   ar
    22    23    24   ar
    23     6    25    1
    24    25    26   ar
    25    26    27   ar
    26    27    28   ar
    27    28    29    1
    28    28    30   ar
    29    30    31   ar
    30     6     2    1
    31    24    18   ar
    32    31    25   ar
    33    14     8   ar
    34     3     7    1
@<TRIPOS>MOLECULE
*****
 31 34 0 0 0
SMALL
GASTEIGER

@<TRIPOS>ATOM
      1 C         144.3767  140.2394  162.9241 C.3     1  UNL1        0.0559
      2 C         143.6180  140.9791  163.9858 C.3     1  UNL1        0.2097
      3 N         143.6632  140.6995  165.4588 N.pl3   1  UNL1       -0.2182
      4 C         142.7539  141.6759  166.1441 C.2     1  UNL1        0.3176
      5 N         142.1467  142.5590  165.0947 N.2     1  UNL1       -0.0615
      6 C         142.6806  142.1284  163.7608 C.3     1  UNL1        0.2514
      7 H         144.1962  139.9982  165.8985 H       1  UNL1        0.2923
      8 C         142.4970  141.7552  167.6199 C.ar    1  UNL1        0.0992
      9 C         143.4447  142.5071  168.5068 C.ar    1  UNL1        0.0138
     10 C         143.1877  142.5864  169.9825 C.ar    1  UNL1        0.0612
     11 C         141.9831  141.9139  170.5712 C.ar    1  UNL1        0.2649
     12 O         141.7262  141.9932  172.0470 O.2     1  UNL1       -0.2668
     13 N         141.0354  141.1620  169.6843 N.ar    1  UNL1       -0.2390
     14 C         141.2924  141.0827  168.2087 C.ar    1  UNL1        0.0907
     15 C         139.8308  140.4895  170.2731 C.3     1  UNL1        0.4163
     16 F         138.4573  141.0077  169.9653 F       1  UNL1       -0.1724
     17 F         139.9998  139.2989  171.1696 F       1  UNL1       -0.1724
     18 C         143.0341  141.9293  162.3167 C.ar    1  UNL1        0.0297
     19 C         142.2727  140.9376  161.4880 C.ar    1  UNL1        0.0025
     20 C         142.6262  140.7385  160.0439 C.ar    1  UNL1        0.0295
     21 C         143.7411  141.5311  159.4285 C.ar    1  UNL1        0.1401
     22 F         144.0946  141.3320  157.9844 F       1  UNL1       -0.2042
     23 C         144.5026  142.5229  160.2572 C.ar    1  UNL1        0.0295
     24 C         144.1491  142.7220  161.7013 C.ar    1  UNL1        0.0025
     25 C         141.8172  143.2361  163.2339 C.ar    1  UNL1        0.0488
     26 C         140.5441  142.9145  162.5088 C.ar    1  UNL1        0.0057
     27 C         139.6807  144.0222  161.9819 C.ar    1  UNL1        0.0495
     28 C         140.0905  145.4514  162.1801 C.ar    1  UNL1        0.2223
     29 F         139.2270  146.5591  161.6531 F       1  UNL1       -0.1832
     30 N         141.3635  145.7730  162.9051 N.ar    1  UNL1       -0.2166
     31 C         142.2270  144.6654  163.4320 C.ar    1  UNL1        0.1014
@<TRIPOS>BOND
     1     2     1    1
     2     2     3    1
     3     3     4    1
     4     4     8    1
     5     8     9   ar
     6     9    10   ar
     7    10    11   ar
     8    11    12    2
     9    11    13   ar
    10    13    15    1
    11    15    16    1
    12    15    17    1
    13    13    14   ar
    14     4     5    2
    15     5     6    1
    16     6    18    1
    17    18    19   ar
    18    19    20   ar
    19    20    21   ar
    20    21    22    1
    21    21    23   ar
    22    23    24   ar
    23     6    25    1
    24    25    26   ar
    25    26    27   ar
    26    27    28   ar
    27    28    29    1
    28    28    30   ar
    29    30    31   ar
    30     6     2    1
    31    24    18   ar
    32    31    25   ar
    33    14     8   ar
    34     3     7    1
@<TRIPOS>MOLECULE
*****
 31 34 0 0 0
SMALL
GASTEIGER

@<TRIPOS>ATOM
      1 C         138.0404  139.2366  162.8178 C.3     1  UNL1        0.0559
      2 C         138.9911  139.7618  163.8523 C.3     1  UNL1        0.2097
      3 N         138.7511  139.7987  165.3325 N.pl3   1  UNL1       -0.2182
      4 C         139.9604  140.4020  165.9833 C.2     1  UNL1        0.3176
      5 N         140.9479  140.7379  164.9054 N.2     1  UNL1       -0.0615
      6 C         140.3489  140.3422  163.5883 C.3     1  UNL1        0.2514
      7 H         137.9418  139.4826  165.7956 H       1  UNL1        0.2923
      8 C         140.1491  140.6295  167.4540 C.ar    1  UNL1        0.0992
      9 C         139.1657  140.0603  168.4332 C.ar    1  UNL1        0.0138
     10 C         139.3544  140.2878  169.9037 C.ar    1  UNL1        0.0612
     11 C         140.5266  141.0844  170.3951 C.ar    1  UNL1        0.2649
     12 O         140.7153  141.3119  171.8657 O.2     1  UNL1       -0.2668
     13 N         141.5100  141.6535  169.4159 N.ar    1  UNL1       -0.2390
     14 C         141.3213  141.4261  167.9453 C.ar    1  UNL1        0.0907
     15 C         142.6822  142.4501  169.9072 C.3     1  UNL1        0.4163
     16 F         144.0623  141.8649  169.8533 F       1  UNL1       -0.1724
     17 F         142.4744  143.8319  170.4525 F       1  UNL1       -0.1724
     18 C         140.0192  140.0553  162.1534 C.ar    1  UNL1        0.0297
     19 C         139.4263  141.1297  161.2908 C.ar    1  UNL1        0.0025
     20 C         139.0966  140.8428  159.8558 C.ar    1  UNL1        0.0295
     21 C         139.3599  139.4816  159.2835 C.ar    1  UNL1        0.1401
     22 F         139.0303  139.1947  157.8486 F       1  UNL1       -0.2042
     23 C         139.9529  138.4071  160.1461 C.ar    1  UNL1        0.0295
     24 C         140.2826  138.6940  161.5810 C.ar    1  UNL1        0.0025
     25 C         141.6377  140.8626  163.0243 C.ar    1  UNL1        0.0488
     26 C         142.7167  139.9056  162.6121 C.ar    1  UNL1        0.0057
     27 C         144.0055  140.4260  162.0481 C.ar    1  UNL1        0.0495
     28 C         144.2153  141.9035  161.8963 C.ar    1  UNL1        0.2223
     29 F         145.5042  142.4239  161.3323 F       1  UNL1       -0.1832
     30 N         143.1364  142.8605  162.3085 N.ar    1  UNL1       -0.2166
     31 C         141.8475  142.3401  162.8725 C.ar    1  UNL1        0.1014
@<TRIPOS>BOND
     1     2     1    1
     2     2     3    1
     3     3     4    1
     4     4     8    1
     5     8     9   ar
     6     9    10   ar
     7    10    11   ar
     8    11    12    2
     9    11    13   ar
    10    13    15    1
    11    15    16    1
    12    15    17    1
    13    13    14   ar
    14     4     5    2
    15     5     6    1
    16     6    18    1
    17    18    19   ar
    18    19    20   ar
    19    20    21   ar
    20    21    22    1
    21    21    23   ar
    22    23    24   ar
    23     6    25    1
    24    25    26   ar
    25    26    27   ar
    26    27    28   ar
    27    28    29    1
    28    28    30   ar
    29    30    31   ar
    30     6     2    1
    31    24    18   ar
    32    31    25   ar
    33    14     8   ar
    34     3     7    1
