@<TRIPOS>MOLECULE
*****
 31 35 0 0 0
SMALL
GASTEIGER

@<TRIPOS>ATOM
      1 C         142.2634  141.6044  161.7485 C.ar    1  UNL1        0.1829
      2 N         141.5132  140.9015  162.8408 N.ar    1  UNL1       -0.2103
      3 C         142.5134  140.2131  163.7214 C.ar    1  UNL1        0.1414
      4 N         143.8819  140.4904  163.1734 N.ar    1  UNL1       -0.2361
      5 N         143.7274  141.3503  161.9541 N.ar    1  UNL1       -0.1488
      6 C         145.0919  139.9242  163.8554 C.3     1  UNL1        0.1289
      7 C         144.9334  139.0805  165.0855 C.3     1  UNL1        0.0272
      8 C         143.5649  138.8032  165.6335 C.3     1  UNL1        0.0140
      9 C         142.3549  139.3694  164.9515 C.3     1  UNL1        0.0803
     10 C         140.9865  139.0921  165.4995 C.ar    1  UNL1       -0.0192
     11 C         140.4526  139.9138  166.6351 C.ar    1  UNL1       -0.0019
     12 C         139.0841  139.6365  167.1831 C.ar    1  UNL1        0.0293
     13 C         138.2495  138.5373  166.5956 C.ar    1  UNL1        0.1398
     14 F         136.8810  138.2600  167.1436 F       1  UNL1       -0.2042
     15 C         138.7834  137.7156  165.4600 C.ar    1  UNL1        0.0251
     16 C         140.1519  137.9929  164.9120 C.ar    1  UNL1       -0.0232
     17 C         140.6857  137.1711  163.7763 C.3     1  UNL1        0.0308
     18 C         140.3445  144.5182  159.8570 C.ar    1  UNL1        0.1548
     19 C         140.9516  143.7042  160.9610 C.ar    1  UNL1        0.0415
     20 C         141.6563  142.4184  160.6445 C.ar    1  UNL1        0.0406
     21 C         141.7539  141.9467  159.2240 C.ar    1  UNL1        0.0048
     22 C         141.1468  142.7607  158.1200 C.ar    1  UNL1        0.0207
     23 C         140.4421  144.0465  158.4365 C.ar    1  UNL1        0.0994
     24 N         139.8350  144.8605  157.3325 N.ar    1  UNL1       -0.2839
     25 C         138.8551  144.3671  156.3096 C.ar    1  UNL1        0.1826
     26 N         138.5157  145.5125  155.4025 N.ar    1  UNL1       -0.2280
     27 C         139.2858  146.7139  155.8648 C.ar    1  UNL1        0.0786
     28 C         139.2473  148.0786  155.2434 C.3     1  UNL1        0.0538
     29 C         140.1012  146.3109  157.0576 C.ar    1  UNL1        0.0963
     30 C         139.6692  146.3513  161.5699 C.3     1  UNL1        0.2525
     31 O         139.6399  145.8041  160.1736 O.3     1  UNL1       -0.4700
@<TRIPOS>BOND
     1    30    31    1
     2    31    18    1
     3    18    19   ar
     4    19    20   ar
     5    20     1    1
     6     1     2   ar
     7     2     3   ar
     8     3     4   ar
     9     4     5   ar
    10     4     6    1
    11     6     7    1
    12     7     8    1
    13     8     9    1
    14     9    10    1
    15    10    11   ar
    16    11    12   ar
    17    12    13   ar
    18    13    14    1
    19    13    15   ar
    20    15    16   ar
    21    16    17    1
    22    20    21   ar
    23    21    22   ar
    24    22    23   ar
    25    23    24    1
    26    24    25   ar
    27    25    26   ar
    28    26    27   ar
    29    27    28    1
    30    27    29   ar
    31    23    18   ar
    32    29    24   ar
    33     5     1   ar
    34    16    10   ar
    35     9     3    1
@<TRIPOS>MOLECULE
*****
 31 35 0 0 0
SMALL
GASTEIGER

@<TRIPOS>ATOM
      1 C         140.7157  140.2216  164.1957 C.ar    1  UNL1        0.1829
      2 N         141.0273  140.7564  165.5620 N.ar    1  UNL1       -0.2103
      3 C         140.0071  140.2111  166.5170 C.ar    1  UNL1        0.1414
      4 N         139.0650  139.3393  165.7408 N.ar    1  UNL1       -0.2361
      5 N         139.5030  139.3458  164.3062 N.ar    1  UNL1       -0.1488
      6 C         137.9301  138.6522  166.4406 C.3     1  UNL1        0.1289
      7 C         137.7373  138.8369  167.9166 C.3     1  UNL1        0.0272
      8 C         138.6794  139.7087  168.6928 C.3     1  UNL1        0.0140
      9 C         139.8143  140.3958  167.9930 C.3     1  UNL1        0.0803
     10 C         140.7564  141.2676  168.7692 C.ar    1  UNL1       -0.0192
     11 C         140.3495  142.6609  169.1475 C.ar    1  UNL1       -0.0019
     12 C         141.2916  143.5327  169.9236 C.ar    1  UNL1        0.0293
     13 C         142.6405  143.0112  170.3215 C.ar    1  UNL1        0.1398
     14 F         143.5826  143.8830  171.0977 F       1  UNL1       -0.2042
     15 C         143.0474  141.6179  169.9432 C.ar    1  UNL1        0.0251
     16 C         142.1053  140.7461  169.1671 C.ar    1  UNL1       -0.0232
     17 C         142.5122  139.3527  168.7888 C.3     1  UNL1        0.0308
     18 C         143.7077  141.1431  161.7566 C.ar    1  UNL1        0.1548
     19 C         142.9411  140.8530  163.0129 C.ar    1  UNL1        0.0415
     20 C         141.4823  140.5117  162.9394 C.ar    1  UNL1        0.0406
     21 C         140.7901  140.4606  161.6097 C.ar    1  UNL1        0.0048
     22 C         141.5567  140.7507  160.3534 C.ar    1  UNL1        0.0207
     23 C         143.0155  141.0919  160.4269 C.ar    1  UNL1        0.0994
     24 N         143.7821  141.3820  159.1706 N.ar    1  UNL1       -0.2839
     25 C         144.2443  142.7333  158.7119 C.ar    1  UNL1        0.1826
     26 N         144.9689  142.5582  157.4103 N.ar    1  UNL1       -0.2280
     27 C         144.9545  141.0987  157.0645 C.ar    1  UNL1        0.0786
     28 C         145.5663  140.4755  155.8449 C.3     1  UNL1        0.0538
     29 C         144.2210  140.3718  158.1524 C.ar    1  UNL1        0.0963
     30 C         145.8075  141.7549  163.1590 C.3     1  UNL1        0.2525
     31 O         145.1666  141.4844  161.8301 O.3     1  UNL1       -0.4700
@<TRIPOS>BOND
     1    30    31    1
     2    31    18    1
     3    18    19   ar
     4    19    20   ar
     5    20     1    1
     6     1     2   ar
     7     2     3   ar
     8     3     4   ar
     9     4     5   ar
    10     4     6    1
    11     6     7    1
    12     7     8    1
    13     8     9    1
    14     9    10    1
    15    10    11   ar
    16    11    12   ar
    17    12    13   ar
    18    13    14    1
    19    13    15   ar
    20    15    16   ar
    21    16    17    1
    22    20    21   ar
    23    21    22   ar
    24    22    23   ar
    25    23    24    1
    26    24    25   ar
    27    25    26   ar
    28    26    27   ar
    29    27    28    1
    30    27    29   ar
    31    23    18   ar
    32    29    24   ar
    33     5     1   ar
    34    16    10   ar
    35     9     3    1
@<TRIPOS>MOLECULE
*****
 31 35 0 0 0
SMALL
GASTEIGER

@<TRIPOS>ATOM
      1 C         142.2606  141.6627  161.6761 C.ar    1  UNL1        0.1829
      2 N         141.5163  140.9330  162.7548 N.ar    1  UNL1       -0.2103
      3 C         142.5238  140.2613  163.6402 C.ar    1  UNL1        0.1414
      4 N         143.8908  140.5759  163.1086 N.ar    1  UNL1       -0.2361
      5 N         143.7280  141.4420  161.8948 N.ar    1  UNL1       -0.1488
      6 C         145.1070  140.0330  163.7986 C.3     1  UNL1        0.1289
      7 C         144.9563  139.1756  165.0200 C.3     1  UNL1        0.0272
      8 C         143.5893  138.8610  165.5516 C.3     1  UNL1        0.0140
      9 C         142.3731  139.4039  164.8616 C.3     1  UNL1        0.0803
     10 C         141.0062  139.0893  165.3932 C.ar    1  UNL1       -0.0192
     11 C         140.4200  139.9215  166.4949 C.ar    1  UNL1       -0.0019
     12 C         139.0531  139.6069  167.0264 C.ar    1  UNL1        0.0293
     13 C         138.2723  138.4601  166.4562 C.ar    1  UNL1        0.1398
     14 F         136.9054  138.1455  166.9878 F       1  UNL1       -0.2042
     15 C         138.8585  137.6279  165.3546 C.ar    1  UNL1        0.0251
     16 C         140.2254  137.9424  164.8230 C.ar    1  UNL1       -0.0232
     17 C         140.8115  137.1101  163.7213 C.3     1  UNL1        0.0308
     18 C         141.8823  143.7780  158.3396 C.ar    1  UNL1        0.1548
     19 C         142.4975  142.9695  159.4432 C.ar    1  UNL1        0.0415
     20 C         141.6454  142.4712  160.5726 C.ar    1  UNL1        0.0406
     21 C         140.1781  142.7814  160.5984 C.ar    1  UNL1        0.0048
     22 C         139.5629  143.5899  159.4948 C.ar    1  UNL1        0.0207
     23 C         140.4150  144.0882  158.3654 C.ar    1  UNL1        0.0994
     24 N         139.7998  144.8967  157.2618 N.ar    1  UNL1       -0.2839
     25 C         138.9645  144.3613  156.1368 C.ar    1  UNL1        0.1826
     26 N         138.5603  145.5162  155.2692 N.ar    1  UNL1       -0.2280
     27 C         139.1458  146.7654  155.8579 C.ar    1  UNL1        0.0786
     28 C         138.9923  148.1538  155.3112 C.3     1  UNL1        0.0538
     29 C         139.9119  146.3825  157.0894 C.ar    1  UNL1        0.0963
     30 C         142.8876  143.4525  155.9661 C.3     1  UNL1        0.2525
     31 O         142.7345  144.2763  157.2102 O.3     1  UNL1       -0.4700
@<TRIPOS>BOND
     1    30    31    1
     2    31    18    1
     3    18    19   ar
     4    19    20   ar
     5    20     1    1
     6     1     2   ar
     7     2     3   ar
     8     3     4   ar
     9     4     5   ar
    10     4     6    1
    11     6     7    1
    12     7     8    1
    13     8     9    1
    14     9    10    1
    15    10    11   ar
    16    11    12   ar
    17    12    13   ar
    18    13    14    1
    19    13    15   ar
    20    15    16   ar
    21    16    17    1
    22    20    21   ar
    23    21    22   ar
    24    22    23   ar
    25    23    24    1
    26    24    25   ar
    27    25    26   ar
    28    26    27   ar
    29    27    28    1
    30    27    29   ar
    31    23    18   ar
    32    29    24   ar
    33     5     1   ar
    34    16    10   ar
    35     9     3    1
@<TRIPOS>MOLECULE
*****
 31 35 0 0 0
SMALL
GASTEIGER

@<TRIPOS>ATOM
      1 C         143.1586  138.7316  159.3908 C.ar    1  UNL1        0.1829
      2 N         143.0012  137.5064  158.5398 N.ar    1  UNL1       -0.2103
      3 C         143.0994  137.9244  157.1026 C.ar    1  UNL1        0.1414
      4 N         143.3173  139.4080  157.0653 N.ar    1  UNL1       -0.2361
      5 N         143.3539  139.9069  158.4794 N.ar    1  UNL1       -0.1488
      6 C         143.4543  140.1131  155.7484 C.3     1  UNL1        0.1289
      7 C         143.3733  139.3345  154.4689 C.3     1  UNL1        0.0272
      8 C         143.1554  137.8508  154.5063 C.3     1  UNL1        0.0140
      9 C         143.0184  137.1458  155.8231 C.3     1  UNL1        0.0803
     10 C         142.8004  135.6622  155.8605 C.ar    1  UNL1       -0.0192
     11 C         143.8745  134.7595  156.3908 C.ar    1  UNL1       -0.0019
     12 C         143.6566  133.2759  156.4282 C.ar    1  UNL1        0.0293
     13 C         142.3645  132.6950  155.9351 C.ar    1  UNL1        0.1398
     14 F         142.1466  131.2114  155.9725 F       1  UNL1       -0.2042
     15 C         141.2904  133.5977  155.4047 C.ar    1  UNL1        0.0251
     16 C         141.5084  135.0813  155.3674 C.ar    1  UNL1       -0.0232
     17 C         140.4342  135.9841  154.8370 C.3     1  UNL1        0.0308
     18 C         144.1581  139.5590  163.1413 C.ar    1  UNL1        0.1548
     19 C         144.1905  139.5165  161.6422 C.ar    1  UNL1        0.0415
     20 C         143.1262  138.7741  160.8898 C.ar    1  UNL1        0.0406
     21 C         142.0296  138.0742  161.6365 C.ar    1  UNL1        0.0048
     22 C         141.9973  138.1167  163.1355 C.ar    1  UNL1        0.0207
     23 C         143.0615  138.8591  163.8879 C.ar    1  UNL1        0.0994
     24 N         143.0292  138.9015  165.3870 N.ar    1  UNL1       -0.2839
     25 C         143.8382  138.0404  166.3111 C.ar    1  UNL1        0.1826
     26 N         143.4911  138.4193  167.7204 N.ar    1  UNL1       -0.2280
     27 C         142.4677  139.5146  167.6673 C.ar    1  UNL1        0.0786
     28 C         141.8399  140.1928  168.8488 C.3     1  UNL1        0.0538
     29 C         142.1822  139.8126  166.2251 C.ar    1  UNL1        0.0963
     30 C         145.6611  141.6586  163.4293 C.3     1  UNL1        0.2525
     31 O         145.2225  140.3014  163.8937 O.3     1  UNL1       -0.4700
@<TRIPOS>BOND
     1    30    31    1
     2    31    18    1
     3    18    19   ar
     4    19    20   ar
     5    20     1    1
     6     1     2   ar
     7     2     3   ar
     8     3     4   ar
     9     4     5   ar
    10     4     6    1
    11     6     7    1
    12     7     8    1
    13     8     9    1
    14     9    10    1
    15    10    11   ar
    16    11    12   ar
    17    12    13   ar
    18    13    14    1
    19    13    15   ar
    20    15    16   ar
    21    16    17    1
    22    20    21   ar
    23    21    22   ar
    24    22    23   ar
    25    23    24    1
    26    24    25   ar
    27    25    26   ar
    28    26    27   ar
    29    27    28    1
    30    27    29   ar
    31    23    18   ar
    32    29    24   ar
    33     5     1   ar
    34    16    10   ar
    35     9     3    1
@<TRIPOS>MOLECULE
*****
 31 35 0 0 0
SMALL
GASTEIGER

@<TRIPOS>ATOM
      1 C         142.3136  139.9631  161.1529 C.ar    1  UNL1        0.1829
      2 N         141.5082  140.7517  162.1426 N.ar    1  UNL1       -0.2103
      3 C         140.8586  139.7844  163.0873 C.ar    1  UNL1        0.1414
      4 N         141.2624  138.3980  162.6813 N.ar    1  UNL1       -0.2361
      5 N         142.1616  138.5084  161.4858 N.ar    1  UNL1       -0.1488
      6 C         140.7591  137.2141  163.4527 C.3     1  UNL1        0.1289
      7 C         139.8521  137.4166  164.6300 C.3     1  UNL1        0.0272
      8 C         139.4483  138.8030  165.0360 C.3     1  UNL1        0.0140
      9 C         139.9515  139.9869  164.2646 C.3     1  UNL1        0.0803
     10 C         139.5477  141.3733  164.6705 C.ar    1  UNL1       -0.0192
     11 C         140.3643  142.1278  165.6774 C.ar    1  UNL1       -0.0019
     12 C         139.9605  143.5142  166.0834 C.ar    1  UNL1        0.0293
     13 C         138.7401  144.1461  165.4824 C.ar    1  UNL1        0.1398
     14 F         138.3363  145.5326  165.8884 F       1  UNL1       -0.2042
     15 C         137.9235  143.3917  164.4756 C.ar    1  UNL1        0.0251
     16 C         138.3273  142.0052  164.0696 C.ar    1  UNL1       -0.0232
     17 C         137.5106  141.2508  163.0627 C.3     1  UNL1        0.0308
     18 C         144.2088  140.2700  157.6795 C.ar    1  UNL1        0.1548
     19 C         143.3945  139.7033  158.8047 C.ar    1  UNL1        0.0415
     20 C         143.1278  140.5297  160.0277 C.ar    1  UNL1        0.0406
     21 C         143.6754  141.9227  160.1257 C.ar    1  UNL1        0.0048
     22 C         144.4897  142.4893  159.0005 C.ar    1  UNL1        0.0207
     23 C         144.7564  141.6629  157.7775 C.ar    1  UNL1        0.0994
     24 N         145.5707  142.2296  156.6524 N.ar    1  UNL1       -0.2839
     25 C         147.0419  142.5196  156.6877 C.ar    1  UNL1        0.1826
     26 N         147.4372  143.0749  155.3515 N.ar    1  UNL1       -0.2280
     27 C         146.2102  143.1281  154.4903 C.ar    1  UNL1        0.0786
     28 C         146.1477  143.6178  153.0739 C.3     1  UNL1        0.0538
     29 C         145.0566  142.6057  155.2943 C.ar    1  UNL1        0.0963
     30 C         143.3456  138.7370  155.7677 C.3     1  UNL1        0.2525
     31 O         144.4754  139.4435  156.4564 O.3     1  UNL1       -0.4700
@<TRIPOS>BOND
     1    30    31    1
     2    31    18    1
     3    18    19   ar
     4    19    20   ar
     5    20     1    1
     6     1     2   ar
     7     2     3   ar
     8     3     4   ar
     9     4     5   ar
    10     4     6    1
    11     6     7    1
    12     7     8    1
    13     8     9    1
    14     9    10    1
    15    10    11   ar
    16    11    12   ar
    17    12    13   ar
    18    13    14    1
    19    13    15   ar
    20    15    16   ar
    21    16    17    1
    22    20    21   ar
    23    21    22   ar
    24    22    23   ar
    25    23    24    1
    26    24    25   ar
    27    25    26   ar
    28    26    27   ar
    29    27    28    1
    30    27    29   ar
    31    23    18   ar
    32    29    24   ar
    33     5     1   ar
    34    16    10   ar
    35     9     3    1
@<TRIPOS>MOLECULE
*****
 31 35 0 0 0
SMALL
GASTEIGER

@<TRIPOS>ATOM
      1 C         140.8361  141.3360  161.7081 C.ar    1  UNL1        0.1829
      2 N         140.9682  141.1294  163.1879 N.ar    1  UNL1       -0.2103
      3 C         140.3286  142.2976  163.8780 C.ar    1  UNL1        0.1414
      4 N         139.8013  143.2262  162.8247 N.ar    1  UNL1       -0.2361
      5 N         140.1149  142.6320  161.4836 N.ar    1  UNL1       -0.1488
      6 C         139.1036  144.4930  163.2228 C.3     1  UNL1        0.1289
      7 C         138.9333  144.8311  164.6742 C.3     1  UNL1        0.0272
      8 C         139.4607  143.9024  165.7275 C.3     1  UNL1        0.0140
      9 C         140.1584  142.6357  165.3294 C.3     1  UNL1        0.0803
     10 C         140.6857  141.7070  166.3827 C.ar    1  UNL1       -0.0192
     11 C         139.7481  140.7928  167.1142 C.ar    1  UNL1       -0.0019
     12 C         140.2755  139.8642  168.1675 C.ar    1  UNL1        0.0293
     13 C         141.7405  139.8496  168.4893 C.ar    1  UNL1        0.1398
     14 F         142.2679  138.9210  169.5426 F       1  UNL1       -0.2042
     15 C         142.6781  140.7638  167.7578 C.ar    1  UNL1        0.0251
     16 C         142.1507  141.6925  166.7045 C.ar    1  UNL1       -0.0232
     17 C         143.0884  142.6067  165.9729 C.3     1  UNL1        0.0308
     18 C         140.8658  138.7810  158.6715 C.ar    1  UNL1        0.1548
     19 C         140.3647  139.7076  159.7393 C.ar    1  UNL1        0.0415
     20 C         141.3372  140.4094  160.6402 C.ar    1  UNL1        0.0406
     21 C         142.8108  140.1847  160.4732 C.ar    1  UNL1        0.0048
     22 C         143.3119  139.2581  159.4054 C.ar    1  UNL1        0.0207
     23 C         142.3395  138.5563  158.5045 C.ar    1  UNL1        0.0994
     24 N         142.8406  137.6297  157.4366 N.ar    1  UNL1       -0.2839
     25 C         143.3611  138.0360  156.0898 C.ar    1  UNL1        0.1826
     26 N         143.7514  136.7915  155.3489 N.ar    1  UNL1       -0.2280
     27 C         143.4720  135.6160  156.2378 C.ar    1  UNL1        0.0786
     28 C         143.7132  134.1755  155.8964 C.3     1  UNL1        0.0538
     29 C         142.9091  136.1340  157.5281 C.ar    1  UNL1        0.0963
     30 C         139.4974  138.7014  156.4644 C.3     1  UNL1        0.2525
     31 O         139.8933  138.0791  157.7705 O.3     1  UNL1       -0.4700
@<TRIPOS>BOND
     1    30    31    1
     2    31    18    1
     3    18    19   ar
     4    19    20   ar
     5    20     1    1
     6     1     2   ar
     7     2     3   ar
     8     3     4   ar
     9     4     5   ar
    10     4     6    1
    11     6     7    1
    12     7     8    1
    13     8     9    1
    14     9    10    1
    15    10    11   ar
    16    11    12   ar
    17    12    13   ar
    18    13    14    1
    19    13    15   ar
    20    15    16   ar
    21    16    17    1
    22    20    21   ar
    23    21    22   ar
    24    22    23   ar
    25    23    24    1
    26    24    25   ar
    27    25    26   ar
    28    26    27   ar
    29    27    28    1
    30    27    29   ar
    31    23    18   ar
    32    29    24   ar
    33     5     1   ar
    34    16    10   ar
    35     9     3    1
@<TRIPOS>MOLECULE
*****
 31 35 0 0 0
SMALL
GASTEIGER

@<TRIPOS>ATOM
      1 C         142.1461  140.9246  164.0216 C.ar    1  UNL1        0.1829
      2 N         141.7231  141.1879  165.4364 N.ar    1  UNL1       -0.2103
      3 C         142.3456  140.1388  166.3092 C.ar    1  UNL1        0.1414
      4 N         143.1534  139.2271  165.4339 N.ar    1  UNL1       -0.2361
      5 N         143.0301  139.7128  164.0200 N.ar    1  UNL1       -0.1488
      6 C         143.8968  138.0725  166.0373 C.3     1  UNL1        0.1289
      7 C         143.8324  137.8296  167.5160 C.3     1  UNL1        0.0272
      8 C         143.0247  138.7413  168.3914 C.3     1  UNL1        0.0140
      9 C         142.2812  139.8959  167.7880 C.3     1  UNL1        0.0803
     10 C         141.4735  140.8076  168.6634 C.ar    1  UNL1       -0.0192
     11 C         140.0723  140.4329  169.0459 C.ar    1  UNL1       -0.0019
     12 C         139.2646  141.3446  169.9213 C.ar    1  UNL1        0.0293
     13 C         139.8579  142.6311  170.4141 C.ar    1  UNL1        0.1398
     14 F         139.0502  143.5428  171.2895 F       1  UNL1       -0.2042
     15 C         141.2590  143.0058  170.0316 C.ar    1  UNL1        0.0251
     16 C         142.0668  142.0941  169.1562 C.ar    1  UNL1       -0.0232
     17 C         143.4680  142.4689  168.7737 C.3     1  UNL1        0.0308
     18 C         140.0756  143.3099  161.6188 C.ar    1  UNL1        0.1548
     19 C         140.4677  142.5030  162.8209 C.ar    1  UNL1        0.0415
     20 C         141.7540  141.7315  162.8194 C.ar    1  UNL1        0.0406
     21 C         142.6483  141.7669  161.6157 C.ar    1  UNL1        0.0048
     22 C         142.2562  142.5737  160.4135 C.ar    1  UNL1        0.0207
     23 C         140.9699  143.3453  160.4150 C.ar    1  UNL1        0.0994
     24 N         140.5778  144.1521  159.2129 N.ar    1  UNL1       -0.2839
     25 C         140.9283  145.5890  158.9628 C.ar    1  UNL1        0.1826
     26 N         140.3335  145.9888  157.6451 N.ar    1  UNL1       -0.2280
     27 C         139.6154  144.7989  157.0807 C.ar    1  UNL1        0.0786
     28 C         138.8761  144.7523  155.7764 C.3     1  UNL1        0.0538
     29 C         139.7664  143.6638  158.0496 C.ar    1  UNL1        0.0963
     30 C         137.8428  143.9592  162.7776 C.3     1  UNL1        0.2525
     31 O         138.7892  144.0815  161.6204 O.3     1  UNL1       -0.4700
@<TRIPOS>BOND
     1    30    31    1
     2    31    18    1
     3    18    19   ar
     4    19    20   ar
     5    20     1    1
     6     1     2   ar
     7     2     3   ar
     8     3     4   ar
     9     4     5   ar
    10     4     6    1
    11     6     7    1
    12     7     8    1
    13     8     9    1
    14     9    10    1
    15    10    11   ar
    16    11    12   ar
    17    12    13   ar
    18    13    14    1
    19    13    15   ar
    20    15    16   ar
    21    16    17    1
    22    20    21   ar
    23    21    22   ar
    24    22    23   ar
    25    23    24    1
    26    24    25   ar
    27    25    26   ar
    28    26    27   ar
    29    27    28    1
    30    27    29   ar
    31    23    18   ar
    32    29    24   ar
    33     5     1   ar
    34    16    10   ar
    35     9     3    1
@<TRIPOS>MOLECULE
*****
 31 35 0 0 0
SMALL
GASTEIGER

@<TRIPOS>ATOM
      1 C         140.0256  141.1378  161.2393 C.ar    1  UNL1        0.1829
      2 N         140.4199  141.1016  162.6860 N.ar    1  UNL1       -0.2103
      3 C         139.6427  142.1642  163.4051 C.ar    1  UNL1        0.1414
      4 N         138.7681  142.8571  162.4027 N.ar    1  UNL1       -0.2361
      5 N         139.0047  142.2228  161.0641 N.ar    1  UNL1       -0.1488
      6 C         137.8691  143.9761  162.8382 C.3     1  UNL1        0.1289
      7 C         137.8449  144.4022  164.2762 C.3     1  UNL1        0.0272
      8 C         138.7196  143.7093  165.2786 C.3     1  UNL1        0.0140
      9 C         139.6185  142.5903  164.8430 C.3     1  UNL1        0.0803
     10 C         140.4932  141.8974  165.8455 C.ar    1  UNL1       -0.0192
     11 C         141.8110  142.4993  166.2339 C.ar    1  UNL1       -0.0019
     12 C         142.6857  141.8064  167.2363 C.ar    1  UNL1        0.0293
     13 C         142.2425  140.5116  167.8503 C.ar    1  UNL1        0.1398
     14 F         143.1172  139.8186  168.8527 F       1  UNL1       -0.2042
     15 C         140.9247  139.9096  167.4618 C.ar    1  UNL1        0.0251
     16 C         140.0500  140.6025  166.4594 C.ar    1  UNL1       -0.0232
     17 C         138.7321  140.0005  166.0709 C.3     1  UNL1        0.0308
     18 C         142.5405  139.4212  158.6941 C.ar    1  UNL1        0.1548
     19 C         142.0076  140.3133  159.7758 C.ar    1  UNL1        0.0415
     20 C         140.5586  140.2457  160.1575 C.ar    1  UNL1        0.0406
     21 C         139.6425  139.2861  159.4576 C.ar    1  UNL1        0.0048
     22 C         140.1755  138.3940  158.3759 C.ar    1  UNL1        0.0207
     23 C         141.6245  138.4615  157.9941 C.ar    1  UNL1        0.0994
     24 N         142.1575  137.5695  156.9124 N.ar    1  UNL1       -0.2839
     25 C         142.2268  137.9003  155.4510 C.ar    1  UNL1        0.1826
     26 N         142.8269  136.7252  154.7375 N.ar    1  UNL1       -0.2280
     27 C         143.1285  135.6681  155.7580 C.ar    1  UNL1        0.0786
     28 C         143.7370  134.3250  155.4828 C.3     1  UNL1        0.0538
     29 C         142.7148  136.1898  157.1021 C.ar    1  UNL1        0.0963
     30 C         144.4877  140.6146  157.4553 C.3     1  UNL1        0.2525
     31 O         143.9896  139.4888  158.3123 O.3     1  UNL1       -0.4700
@<TRIPOS>BOND
     1    30    31    1
     2    31    18    1
     3    18    19   ar
     4    19    20   ar
     5    20     1    1
     6     1     2   ar
     7     2     3   ar
     8     3     4   ar
     9     4     5   ar
    10     4     6    1
    11     6     7    1
    12     7     8    1
    13     8     9    1
    14     9    10    1
    15    10    11   ar
    16    11    12   ar
    17    12    13   ar
    18    13    14    1
    19    13    15   ar
    20    15    16   ar
    21    16    17    1
    22    20    21   ar
    23    21    22   ar
    24    22    23   ar
    25    23    24    1
    26    24    25   ar
    27    25    26   ar
    28    26    27   ar
    29    27    28    1
    30    27    29   ar
    31    23    18   ar
    32    29    24   ar
    33     5     1   ar
    34    16    10   ar
    35     9     3    1
@<TRIPOS>MOLECULE
*****
 31 35 0 0 0
SMALL
GASTEIGER

@<TRIPOS>ATOM
      1 C         139.0555  139.2869  159.3803 C.ar    1  UNL1        0.1829
      2 N         139.9218  138.4051  158.5307 N.ar    1  UNL1       -0.2103
      3 C         139.6507  138.7356  157.0928 C.ar    1  UNL1        0.1414
      4 N         138.6169  139.8218  157.0539 N.ar    1  UNL1       -0.2361
      5 N         138.2490  140.1625  158.4676 N.ar    1  UNL1       -0.1488
      6 C         138.1441  140.3602  155.7361 C.3     1  UNL1        0.1289
      7 C         138.7051  139.8125  154.4574 C.3     1  UNL1        0.0272
      8 C         139.7389  138.7264  154.4964 C.3     1  UNL1        0.0140
      9 C         140.2118  138.1879  155.8141 C.3     1  UNL1        0.0803
     10 C         141.2456  137.1018  155.8531 C.ar    1  UNL1       -0.0192
     11 C         140.8434  135.6750  155.6245 C.ar    1  UNL1       -0.0019
     12 C         141.8772  134.5888  155.6635 C.ar    1  UNL1        0.0293
     13 C         143.3132  134.9295  155.9310 C.ar    1  UNL1        0.1398
     14 F         144.3471  133.8434  155.9700 F       1  UNL1       -0.2042
     15 C         143.7155  136.3564  156.1596 C.ar    1  UNL1        0.0251
     16 C         142.6816  137.4425  156.1206 C.ar    1  UNL1       -0.0232
     17 C         143.0839  138.8694  156.3492 C.3     1  UNL1        0.0308
     18 C         138.3153  140.4453  163.1032 C.ar    1  UNL1        0.1548
     19 C         138.3662  140.4399  161.6041 C.ar    1  UNL1        0.0415
     20 C         139.0046  139.2922  160.8794 C.ar    1  UNL1        0.0406
     21 C         139.5920  138.1499  161.6539 C.ar    1  UNL1        0.0048
     22 C         139.5411  138.1552  163.1530 C.ar    1  UNL1        0.0207
     23 C         138.9027  139.3029  163.8777 C.ar    1  UNL1        0.0994
     24 N         138.8518  139.3082  165.3768 N.ar    1  UNL1       -0.2839
     25 C         137.9381  138.4803  166.2309 C.ar    1  UNL1        0.1826
     26 N         138.2272  138.8028  167.6670 N.ar    1  UNL1       -0.2280
     27 C         139.3197  139.8301  167.7005 C.ar    1  UNL1        0.0786
     28 C         139.9206  140.4383  168.9329 C.3     1  UNL1        0.0538
     29 C         139.7057  140.1425  166.2851 C.ar    1  UNL1        0.0963
     30 C         137.6651  142.9586  163.2073 C.3     1  UNL1        0.2525
     31 O         137.6768  141.5931  163.8279 O.3     1  UNL1       -0.4700
@<TRIPOS>BOND
     1    30    31    1
     2    31    18    1
     3    18    19   ar
     4    19    20   ar
     5    20     1    1
     6     1     2   ar
     7     2     3   ar
     8     3     4   ar
     9     4     5   ar
    10     4     6    1
    11     6     7    1
    12     7     8    1
    13     8     9    1
    14     9    10    1
    15    10    11   ar
    16    11    12   ar
    17    12    13   ar
    18    13    14    1
    19    13    15   ar
    20    15    16   ar
    21    16    17    1
    22    20    21   ar
    23    21    22   ar
    24    22    23   ar
    25    23    24    1
    26    24    25   ar
    27    25    26   ar
    28    26    27   ar
    29    27    28    1
    30    27    29   ar
    31    23    18   ar
    32    29    24   ar
    33     5     1   ar
    34    16    10   ar
    35     9     3    1
