@<TRIPOS>MOLECULE
*****
 30 33 0 0 0
SMALL
GASTEIGER

@<TRIPOS>ATOM
      1 O         137.9837  141.0668  165.0285 O.2     1  UNL1       -0.2526
      2 C         138.4713  139.6721  164.7696 C.2     1  UNL1        0.3042
      3 N         138.5976  138.6990  165.9041 N.am    1  UNL1       -0.2850
      4 N         138.8327  139.2504  163.3760 N.am    1  UNL1       -0.2639
      5 C         139.3388  137.9857  162.7482 C.3     1  UNL1        0.1003
      6 C         139.3437  138.6543  161.4055 C.3     1  UNL1        0.0834
      7 C         138.8376  139.9190  162.0333 C.3     1  UNL1        0.1003
      8 H         138.9177  137.7836  165.7342 H       1  UNL1        0.1513
      9 C         138.2363  139.1206  167.2975 C.3     1  UNL1        0.1138
     10 C         139.2246  139.8814  168.1309 C.2     1  UNL1       -0.0202
     11 C         138.9073  140.2064  169.5604 C.2     1  UNL1       -0.0050
     12 C         139.8956  140.9673  170.3938 C.2     1  UNL1        0.0182
     13 C         141.2012  141.4030  169.7975 C.2     1  UNL1        0.0777
     14 N         142.3627  142.1605  170.3695 N.2     1  UNL1       -0.2442
     15 C         143.3978  142.3036  169.2933 C.2     1  UNL1        0.0985
     16 C         142.8761  141.6346  168.0563 C.2     1  UNL1        0.0182
     17 C         141.5185  141.0780  168.3679 C.2     1  UNL1        0.0011
     18 C         140.5302  140.3172  167.5346 C.3     1  UNL1        0.0515
     19 C         139.7051  138.2326  160.0121 C.3     1  UNL1        0.2087
     20 O         141.1157  138.3835  159.5247 O.3     1  UNL1       -0.4753
     21 C         142.1483  139.0244  160.4038 C.ar    1  UNL1        0.1385
     22 C         142.3763  140.5055  160.3360 C.ar    1  UNL1        0.0368
     23 C         143.4089  141.1464  161.2150 C.ar    1  UNL1        0.0070
     24 C         144.2137  140.3064  162.1619 C.ar    1  UNL1        0.0716
     25 C         143.9857  138.8253  162.2298 C.ar    1  UNL1        0.0070
     26 C         142.9531  138.1844  161.3507 C.ar    1  UNL1        0.0368
     27 C         145.2463  140.9472  163.0410 C.3     1  UNL1        0.4186
     28 F         146.2791  141.5881  163.9202 F       1  UNL1       -0.1659
     29 F         145.1867  139.7703  163.9691 F       1  UNL1       -0.1659
     30 F         145.3060  142.1242  162.1130 F       1  UNL1       -0.1659
@<TRIPOS>BOND
     1     1     2    2
     2     2     3   am
     3     3     9    1
     4     9    10    1
     5    10    11    2
     6    11    12    1
     7    12    13    2
     8    13    14    1
     9    14    15    2
    10    15    16    1
    11    16    17    2
    12    17    18    1
    13     2     4   am
    14     4     5    1
    15     5     6    1
    16     6    19    1
    17    19    20    1
    18    20    21    1
    19    21    22   ar
    20    22    23   ar
    21    23    24   ar
    22    24    27    1
    23    27    28    1
    24    27    29    1
    25    27    30    1
    26    24    25   ar
    27    25    26   ar
    28     6     7    1
    29    18    10    1
    30     7     4    1
    31    17    13    1
    32    26    21   ar
    33     3     8    1
@<TRIPOS>MOLECULE
*****
 30 33 0 0 0
SMALL
GASTEIGER

@<TRIPOS>ATOM
      1 O         144.4517  139.4388  164.5201 O.2     1  UNL1       -0.2526
      2 C         143.0142  139.0102  164.5311 C.2     1  UNL1        0.3042
      3 N         142.3289  138.7168  165.8327 N.am    1  UNL1       -0.2850
      4 N         142.2620  138.8752  163.2402 N.am    1  UNL1       -0.2639
      5 C         140.8636  138.4849  162.8634 C.3     1  UNL1        0.1003
      6 C         141.1984  138.6842  161.4149 C.3     1  UNL1        0.0834
      7 C         142.5968  139.0744  161.7917 C.3     1  UNL1        0.1003
      8 H         141.3855  138.4356  165.8399 H       1  UNL1        0.1513
      9 C         143.0811  138.8519  167.1234 C.3     1  UNL1        0.1138
     10 C         142.4802  139.6172  168.2651 C.2     1  UNL1       -0.0202
     11 C         142.6339  139.1131  169.6693 C.2     1  UNL1       -0.0050
     12 C         142.0330  139.8784  170.8110 C.2     1  UNL1        0.0182
     13 C         141.2783  141.1478  170.5482 C.2     1  UNL1        0.0777
     14 N         140.5815  142.1093  171.4647 N.2     1  UNL1       -0.2442
     15 C         139.9971  143.2076  170.6267 C.2     1  UNL1        0.0985
     16 C         140.3327  142.9249  169.1923 C.2     1  UNL1        0.0182
     17 C         141.1246  141.6519  169.1438 C.2     1  UNL1        0.0011
     18 C         141.7255  140.8866  168.0022 C.3     1  UNL1        0.0515
     19 C         140.4462  138.5491  160.1242 C.3     1  UNL1        0.2087
     20 O         139.2839  139.4522  159.8353 O.3     1  UNL1       -0.4753
     21 C         138.8822  140.4995  160.8312 C.ar    1  UNL1        0.1385
     22 C         137.8303  140.1952  161.8564 C.ar    1  UNL1        0.0368
     23 C         137.4286  141.2425  162.8523 C.ar    1  UNL1        0.0070
     24 C         138.0787  142.5939  162.8231 C.ar    1  UNL1        0.0716
     25 C         139.1306  142.8982  161.7979 C.ar    1  UNL1        0.0070
     26 C         139.5323  141.8510  160.8019 C.ar    1  UNL1        0.0368
     27 C         137.6770  143.6412  163.8189 C.3     1  UNL1        0.4186
     28 F         137.2753  144.6885  164.8149 F       1  UNL1       -0.1659
     29 F         137.3742  142.5695  164.8239 F       1  UNL1       -0.1659
     30 F         137.9798  144.7130  162.8141 F       1  UNL1       -0.1659
@<TRIPOS>BOND
     1     1     2    2
     2     2     3   am
     3     3     9    1
     4     9    10    1
     5    10    11    2
     6    11    12    1
     7    12    13    2
     8    13    14    1
     9    14    15    2
    10    15    16    1
    11    16    17    2
    12    17    18    1
    13     2     4   am
    14     4     5    1
    15     5     6    1
    16     6    19    1
    17    19    20    1
    18    20    21    1
    19    21    22   ar
    20    22    23   ar
    21    23    24   ar
    22    24    27    1
    23    27    28    1
    24    27    29    1
    25    27    30    1
    26    24    25   ar
    27    25    26   ar
    28     6     7    1
    29    18    10    1
    30     7     4    1
    31    17    13    1
    32    26    21   ar
    33     3     8    1
@<TRIPOS>MOLECULE
*****
 30 33 0 0 0
SMALL
GASTEIGER

@<TRIPOS>ATOM
      1 O         143.2724  137.4942  159.2311 O.2     1  UNL1       -0.2526
      2 C         142.0862  137.6328  158.3235 C.2     1  UNL1        0.3042
      3 N         142.0704  136.9317  156.9976 N.am    1  UNL1       -0.2850
      4 N         140.9158  138.4727  158.7419 N.am    1  UNL1       -0.2639
      5 C         139.5976  138.8369  158.1259 C.3     1  UNL1        0.1003
      6 C         139.2608  139.6603  159.3336 C.3     1  UNL1        0.0834
      7 C         140.5791  139.2961  159.9496 C.3     1  UNL1        0.1003
      8 H         141.2919  137.0228  156.4019 H       1  UNL1        0.1513
      9 C         143.2407  136.0919  156.5792 C.3     1  UNL1        0.1138
     10 C         143.1092  134.5989  156.5195 C.2     1  UNL1       -0.0202
     11 C         142.0249  133.9740  155.6927 C.2     1  UNL1       -0.0050
     12 C         141.8933  132.4809  155.6330 C.2     1  UNL1        0.0182
     13 C         142.8462  131.6128  156.4001 C.2     1  UNL1        0.0777
     14 N         142.9621  130.1232  156.5330 N.2     1  UNL1       -0.2442
     15 C         144.1181  129.8276  157.4420 C.2     1  UNL1        0.0985
     16 C         144.7166  131.1344  157.8708 C.2     1  UNL1        0.0182
     17 C         143.9305  132.2378  157.2269 C.2     1  UNL1        0.0011
     18 C         144.0620  133.7308  157.2866 C.3     1  UNL1        0.0515
     19 C         138.0905  140.5001  159.7520 C.3     1  UNL1        0.2087
     20 O         137.4943  140.3287  161.1177 O.3     1  UNL1       -0.4753
     21 C         137.7226  141.3709  162.1720 C.ar    1  UNL1        0.1385
     22 C         137.8787  142.8108  161.7817 C.ar    1  UNL1        0.0368
     23 C         138.1070  143.8531  162.8359 C.ar    1  UNL1        0.0070
     24 C         138.1794  143.4555  164.2805 C.ar    1  UNL1        0.0716
     25 C         138.0233  142.0156  164.6708 C.ar    1  UNL1        0.0070
     26 C         137.7949  140.9733  163.6165 C.ar    1  UNL1        0.0368
     27 C         138.4077  144.4977  165.3347 C.3     1  UNL1        0.4186
     28 F         138.6362  145.5400  166.3891 F       1  UNL1       -0.1659
     29 F         139.8789  144.2062  165.3043 F       1  UNL1       -0.1659
     30 F         136.9367  144.7894  165.3652 F       1  UNL1       -0.1659
@<TRIPOS>BOND
     1     1     2    2
     2     2     3   am
     3     3     9    1
     4     9    10    1
     5    10    11    2
     6    11    12    1
     7    12    13    2
     8    13    14    1
     9    14    15    2
    10    15    16    1
    11    16    17    2
    12    17    18    1
    13     2     4   am
    14     4     5    1
    15     5     6    1
    16     6    19    1
    17    19    20    1
    18    20    21    1
    19    21    22   ar
    20    22    23   ar
    21    23    24   ar
    22    24    27    1
    23    27    28    1
    24    27    29    1
    25    27    30    1
    26    24    25   ar
    27    25    26   ar
    28     6     7    1
    29    18    10    1
    30     7     4    1
    31    17    13    1
    32    26    21   ar
    33     3     8    1
@<TRIPOS>MOLECULE
*****
 30 33 0 0 0
SMALL
GASTEIGER

@<TRIPOS>ATOM
      1 O         139.2453  138.2211  163.7036 O.2     1  UNL1       -0.2526
      2 C         138.6853  139.6117  163.7565 C.2     1  UNL1        0.3042
      3 N         138.2277  140.1867  165.0641 N.am    1  UNL1       -0.2850
      4 N         138.5829  140.4272  162.5016 N.am    1  UNL1       -0.2639
      5 C         138.0951  141.8063  162.1699 C.3     1  UNL1        0.1003
      6 C         138.4381  141.5805  160.7272 C.3     1  UNL1        0.0834
      7 C         138.9260  140.2014  161.0589 C.3     1  UNL1        0.1003
      8 H         137.8602  141.0993  165.0988 H       1  UNL1        0.1513
      9 C         138.3301  139.3711  166.3189 C.3     1  UNL1        0.1138
     10 C         139.2023  139.8368  167.4469 C.2     1  UNL1       -0.0202
     11 C         138.6772  139.8329  168.8519 C.2     1  UNL1       -0.0050
     12 C         139.5495  140.2986  169.9800 C.2     1  UNL1        0.0182
     13 C         140.9468  140.7682  169.7028 C.2     1  UNL1        0.0777
     14 N         142.0308  141.2806  170.6042 N.2     1  UNL1       -0.2442
     15 C         143.2258  141.6012  169.7562 C.2     1  UNL1        0.0985
     16 C         142.8804  141.2870  168.3308 C.2     1  UNL1        0.0182
     17 C         141.4719  140.7722  168.2977 C.2     1  UNL1        0.0011
     18 C         140.5997  140.3065  167.1698 C.3     1  UNL1        0.0515
     19 C         138.3357  142.3960  159.4724 C.3     1  UNL1        0.2087
     20 O         139.1659  143.6352  159.3134 O.3     1  UNL1       -0.4753
     21 C         140.1762  144.0006  160.3602 C.ar    1  UNL1        0.1385
     22 C         141.5230  143.3403  160.3654 C.ar    1  UNL1        0.0368
     23 C         142.5334  143.7056  161.4121 C.ar    1  UNL1        0.0070
     24 C         142.1969  144.7312  162.4537 C.ar    1  UNL1        0.0716
     25 C         140.8501  145.3915  162.4485 C.ar    1  UNL1        0.0070
     26 C         139.8397  145.0262  161.4017 C.ar    1  UNL1        0.0368
     27 C         143.2072  145.0966  163.5005 C.3     1  UNL1        0.4186
     28 F         144.2175  145.4620  164.5474 F       1  UNL1       -0.1659
     29 F         142.1232  145.7198  164.3292 F       1  UNL1       -0.1659
     30 F         144.2912  144.4735  162.6719 F       1  UNL1       -0.1659
@<TRIPOS>BOND
     1     1     2    2
     2     2     3   am
     3     3     9    1
     4     9    10    1
     5    10    11    2
     6    11    12    1
     7    12    13    2
     8    13    14    1
     9    14    15    2
    10    15    16    1
    11    16    17    2
    12    17    18    1
    13     2     4   am
    14     4     5    1
    15     5     6    1
    16     6    19    1
    17    19    20    1
    18    20    21    1
    19    21    22   ar
    20    22    23   ar
    21    23    24   ar
    22    24    27    1
    23    27    28    1
    24    27    29    1
    25    27    30    1
    26    24    25   ar
    27    25    26   ar
    28     6     7    1
    29    18    10    1
    30     7     4    1
    31    17    13    1
    32    26    21   ar
    33     3     8    1
@<TRIPOS>MOLECULE
*****
 30 33 0 0 0
SMALL
GASTEIGER

@<TRIPOS>ATOM
      1 O         142.1480  139.6321  157.7030 O.2     1  UNL1       -0.2526
      2 C         142.7834  138.6054  158.5931 C.2     1  UNL1        0.3042
      3 N         142.8808  137.1783  158.1415 N.am    1  UNL1       -0.2850
      4 N         143.3215  139.0059  159.9348 N.am    1  UNL1       -0.2639
      5 C         144.0011  138.2873  161.0625 C.3     1  UNL1        0.1003
      6 C         144.0824  139.5722  161.8322 C.3     1  UNL1        0.0834
      7 C         143.4028  140.2908  160.7045 C.3     1  UNL1        0.1003
      8 H         143.2978  136.5045  158.7257 H       1  UNL1        0.1513
      9 C         142.3427  136.7779  156.7998 C.3     1  UNL1        0.1138
     10 C         142.6767  135.4314  156.2293 C.2     1  UNL1       -0.0202
     11 C         142.0605  134.9916  154.9345 C.2     1  UNL1       -0.0050
     12 C         142.3945  133.6451  154.3639 C.2     1  UNL1        0.0182
     13 C         143.3448  132.7384  155.0884 C.2     1  UNL1        0.0777
     14 N         143.8596  131.3653  154.7728 N.2     1  UNL1       -0.2442
     15 C         144.7940  130.9565  155.8727 C.2     1  UNL1        0.0985
     16 C         144.8567  132.0769  156.8680 C.2     1  UNL1        0.0182
     17 C         143.9611  133.1782  156.3833 C.2     1  UNL1        0.0011
     18 C         143.6270  134.5247  156.9538 C.3     1  UNL1        0.0515
     19 C         144.6205  139.9727  163.1739 C.3     1  UNL1        0.2087
     20 O         144.2986  139.1510  164.3868 O.3     1  UNL1       -0.4753
     21 C         142.8866  139.0731  164.8868 C.ar    1  UNL1        0.1385
     22 C         141.9648  138.0096  164.3678 C.ar    1  UNL1        0.0368
     23 C         140.5527  137.9316  164.8677 C.ar    1  UNL1        0.0070
     24 C         140.0624  138.9171  165.8867 C.ar    1  UNL1        0.0716
     25 C         140.9841  139.9806  166.4057 C.ar    1  UNL1        0.0070
     26 C         142.3962  140.0586  165.9058 C.ar    1  UNL1        0.0368
     27 C         138.6504  138.8392  166.3866 C.3     1  UNL1        0.4186
     28 F         137.2382  138.7613  166.8866 F       1  UNL1       -0.1659
     29 F         138.3747  137.7145  165.4331 F       1  UNL1       -0.1659
     30 F         138.9259  139.9639  167.3402 F       1  UNL1       -0.1659
@<TRIPOS>BOND
     1     1     2    2
     2     2     3   am
     3     3     9    1
     4     9    10    1
     5    10    11    2
     6    11    12    1
     7    12    13    2
     8    13    14    1
     9    14    15    2
    10    15    16    1
    11    16    17    2
    12    17    18    1
    13     2     4   am
    14     4     5    1
    15     5     6    1
    16     6    19    1
    17    19    20    1
    18    20    21    1
    19    21    22   ar
    20    22    23   ar
    21    23    24   ar
    22    24    27    1
    23    27    28    1
    24    27    29    1
    25    27    30    1
    26    24    25   ar
    27    25    26   ar
    28     6     7    1
    29    18    10    1
    30     7     4    1
    31    17    13    1
    32    26    21   ar
    33     3     8    1
@<TRIPOS>MOLECULE
*****
 30 33 0 0 0
SMALL
GASTEIGER

@<TRIPOS>ATOM
      1 O         142.2577  146.1323  157.8604 O.2     1  UNL1       -0.2526
      2 C         140.9999  145.3778  158.1748 C.2     1  UNL1        0.3042
      3 N         139.8937  145.3096  157.1641 N.am    1  UNL1       -0.2850
      4 N         140.8483  144.6916  159.5001 N.am    1  UNL1       -0.2639
      5 C         139.7761  143.8706  160.1529 C.3     1  UNL1        0.1003
      6 C         140.6341  143.7213  161.3742 C.3     1  UNL1        0.0834
      7 C         141.7063  144.5423  160.7214 C.3     1  UNL1        0.1003
      8 H         139.0681  144.8145  157.3704 H       1  UNL1        0.1513
      9 C         140.0452  145.9958  155.8389 C.3     1  UNL1        0.1138
     10 C         139.6232  147.4268  155.6827 C.2     1  UNL1       -0.0202
     11 C         138.8574  148.1068  156.7786 C.2     1  UNL1       -0.0050
     12 C         138.4355  149.5377  156.6224 C.2     1  UNL1        0.0182
     13 C         138.7794  150.2886  155.3702 C.2     1  UNL1        0.0777
     14 N         138.4998  151.6968  154.9356 N.2     1  UNL1       -0.2442
     15 C         139.0929  151.8870  153.5711 C.2     1  UNL1        0.0985
     16 C         139.7390  150.5965  153.1623 C.2     1  UNL1        0.0182
     17 C         139.5452  149.6086  154.2743 C.2     1  UNL1        0.0011
     18 C         139.9672  148.1777  154.4306 C.3     1  UNL1        0.0515
     19 C         140.4825  143.0351  162.6994 C.3     1  UNL1        0.2087
     20 O         140.9229  141.6103  162.8610 O.3     1  UNL1       -0.4753
     21 C         140.1661  140.6902  163.7724 C.ar    1  UNL1        0.1385
     22 C         139.5003  139.4658  163.2177 C.ar    1  UNL1        0.0368
     23 C         138.7434  138.5457  164.1290 C.ar    1  UNL1        0.0070
     24 C         138.6524  138.8498  165.5950 C.ar    1  UNL1        0.0716
     25 C         139.3182  140.0742  166.1497 C.ar    1  UNL1        0.0070
     26 C         140.0750  140.9944  165.2384 C.ar    1  UNL1        0.0368
     27 C         137.8956  137.9297  166.5063 C.3     1  UNL1        0.4186
     28 F         137.1387  137.0096  167.4178 F       1  UNL1       -0.1659
     29 F         137.4206  139.1090  167.3025 F       1  UNL1       -0.1659
     30 F         138.3705  136.7505  165.7102 F       1  UNL1       -0.1659
@<TRIPOS>BOND
     1     1     2    2
     2     2     3   am
     3     3     9    1
     4     9    10    1
     5    10    11    2
     6    11    12    1
     7    12    13    2
     8    13    14    1
     9    14    15    2
    10    15    16    1
    11    16    17    2
    12    17    18    1
    13     2     4   am
    14     4     5    1
    15     5     6    1
    16     6    19    1
    17    19    20    1
    18    20    21    1
    19    21    22   ar
    20    22    23   ar
    21    23    24   ar
    22    24    27    1
    23    27    28    1
    24    27    29    1
    25    27    30    1
    26    24    25   ar
    27    25    26   ar
    28     6     7    1
    29    18    10    1
    30     7     4    1
    31    17    13    1
    32    26    21   ar
    33     3     8    1
@<TRIPOS>MOLECULE
*****
 30 33 0 0 0
SMALL
GASTEIGER

@<TRIPOS>ATOM
      1 O         143.3010  137.8998  157.8388 O.2     1  UNL1       -0.2526
      2 C         141.8346  137.8649  157.5251 C.2     1  UNL1        0.3042
      3 N         141.3308  137.0276  156.3871 N.am    1  UNL1       -0.2850
      4 N         140.8719  138.6674  158.3494 N.am    1  UNL1       -0.2639
      5 C         139.3870  138.8788  158.3396 C.3     1  UNL1        0.1003
      6 C         139.5107  139.8023  159.5151 C.3     1  UNL1        0.0834
      7 C         140.9957  139.5909  159.5249 C.3     1  UNL1        0.1003
      8 H         140.3683  137.0047  156.1812 H       1  UNL1        0.1513
      9 C         142.2934  136.2251  155.5628 C.3     1  UNL1        0.1138
     10 C         142.5758  134.7957  155.9195 C.2     1  UNL1       -0.0202
     11 C         141.6863  133.7040  155.4031 C.2     1  UNL1       -0.0050
     12 C         141.9688  132.2746  155.7598 C.2     1  UNL1        0.0182
     13 C         143.1408  131.9371  156.6329 C.2     1  UNL1        0.0777
     14 N         143.6646  130.6295  157.1486 N.2     1  UNL1       -0.2442
     15 C         144.8779  130.9132  157.9838 C.2     1  UNL1        0.0985
     16 C         145.1040  132.3961  157.9842 C.2     1  UNL1        0.0182
     17 C         144.0304  133.0289  157.1493 C.2     1  UNL1        0.0011
     18 C         143.7479  134.4582  156.7926 C.3     1  UNL1        0.0515
     19 C         138.5481  140.6048  160.3393 C.3     1  UNL1        0.2087
     20 O         137.6458  139.9167  161.3204 O.3     1  UNL1       -0.4753
     21 C         138.0215  139.8578  162.7714 C.ar    1  UNL1        0.1385
     22 C         137.9334  141.0919  163.6195 C.ar    1  UNL1        0.0368
     23 C         138.3091  141.0331  165.0705 C.ar    1  UNL1        0.0070
     24 C         138.7728  139.7402  165.6734 C.ar    1  UNL1        0.0716
     25 C         138.8609  138.5062  164.8252 C.ar    1  UNL1        0.0070
     26 C         138.4852  138.5650  163.3742 C.ar    1  UNL1        0.0368
     27 C         139.1485  139.6814  167.1243 C.3     1  UNL1        0.4186
     28 F         139.5243  139.6225  168.5754 F       1  UNL1       -0.1659
     29 F         140.4837  140.2850  166.8031 F       1  UNL1       -0.1659
     30 F         137.8135  139.0778  167.4456 F       1  UNL1       -0.1659
@<TRIPOS>BOND
     1     1     2    2
     2     2     3   am
     3     3     9    1
     4     9    10    1
     5    10    11    2
     6    11    12    1
     7    12    13    2
     8    13    14    1
     9    14    15    2
    10    15    16    1
    11    16    17    2
    12    17    18    1
    13     2     4   am
    14     4     5    1
    15     5     6    1
    16     6    19    1
    17    19    20    1
    18    20    21    1
    19    21    22   ar
    20    22    23   ar
    21    23    24   ar
    22    24    27    1
    23    27    28    1
    24    27    29    1
    25    27    30    1
    26    24    25   ar
    27    25    26   ar
    28     6     7    1
    29    18    10    1
    30     7     4    1
    31    17    13    1
    32    26    21   ar
    33     3     8    1
@<TRIPOS>MOLECULE
*****
 30 33 0 0 0
SMALL
GASTEIGER

@<TRIPOS>ATOM
      1 O         139.2289  137.0719  156.8391 O.2     1  UNL1       -0.2526
      2 C         140.4892  137.7039  157.3512 C.2     1  UNL1        0.3042
      3 N         141.8132  137.3257  156.7562 N.am    1  UNL1       -0.2850
      4 N         140.4255  138.7141  158.4583 N.am    1  UNL1       -0.2639
      5 C         141.4356  139.5320  159.2072 C.3     1  UNL1        0.1003
      6 C         140.3354  140.1426  160.0238 C.3     1  UNL1        0.0834
      7 C         139.3254  139.3248  159.2749 C.3     1  UNL1        0.1003
      8 H         142.6404  137.7405  157.0922 H       1  UNL1        0.1513
      9 C         141.8768  136.3156  155.6491 C.3     1  UNL1        0.1138
     10 C         142.2814  134.9019  155.9462 C.2     1  UNL1       -0.0202
     11 C         141.5109  133.7607  155.3515 C.2     1  UNL1       -0.0050
     12 C         141.9154  132.3470  155.6485 C.2     1  UNL1        0.0182
     13 C         143.0904  132.0749  156.5402 C.2     1  UNL1        0.0777
     14 N         143.7196  130.7965  157.0092 N.2     1  UNL1       -0.2442
     15 C         144.8790  131.1478  157.8937 C.2     1  UNL1        0.0985
     16 C         144.9664  132.6433  157.9714 C.2     1  UNL1        0.0182
     17 C         143.8609  133.2162  157.1349 C.2     1  UNL1        0.0011
     18 C         143.4564  134.6298  156.8379 C.3     1  UNL1        0.0515
     19 C         140.2718  141.1528  161.1308 C.3     1  UNL1        0.2087
     20 O         140.8932  140.8475  162.4615 O.3     1  UNL1       -0.4753
     21 C         140.1094  140.1044  163.5025 C.ar    1  UNL1        0.1385
     22 C         139.0443  140.8123  164.2864 C.ar    1  UNL1        0.0368
     23 C         138.2605  140.0693  165.3273 C.ar    1  UNL1        0.0070
     24 C         138.5418  138.6186  165.5844 C.ar    1  UNL1        0.0716
     25 C         139.6069  137.9107  164.8005 C.ar    1  UNL1        0.0070
     26 C         140.3907  138.6537  163.7595 C.ar    1  UNL1        0.0368
     27 C         137.7580  137.8756  166.6254 C.3     1  UNL1        0.4186
     28 F         136.9742  137.1324  167.6663 F       1  UNL1       -0.1659
     29 F         138.0598  136.5816  165.9290 F       1  UNL1       -0.1659
     30 F         137.4563  139.1694  167.3218 F       1  UNL1       -0.1659
@<TRIPOS>BOND
     1     1     2    2
     2     2     3   am
     3     3     9    1
     4     9    10    1
     5    10    11    2
     6    11    12    1
     7    12    13    2
     8    13    14    1
     9    14    15    2
    10    15    16    1
    11    16    17    2
    12    17    18    1
    13     2     4   am
    14     4     5    1
    15     5     6    1
    16     6    19    1
    17    19    20    1
    18    20    21    1
    19    21    22   ar
    20    22    23   ar
    21    23    24   ar
    22    24    27    1
    23    27    28    1
    24    27    29    1
    25    27    30    1
    26    24    25   ar
    27    25    26   ar
    28     6     7    1
    29    18    10    1
    30     7     4    1
    31    17    13    1
    32    26    21   ar
    33     3     8    1
@<TRIPOS>MOLECULE
*****
 30 33 0 0 0
SMALL
GASTEIGER

@<TRIPOS>ATOM
      1 O         137.3691  142.7622  157.0259 O.2     1  UNL1       -0.2526
      2 C         137.4879  141.2898  157.2861 C.2     1  UNL1        0.3042
      3 N         136.4970  140.3391  156.6827 N.am    1  UNL1       -0.2850
      4 N         138.5978  140.7680  158.1499 N.am    1  UNL1       -0.2639
      5 C         139.0265  139.4098  158.6205 C.3     1  UNL1        0.1003
      6 C         140.1673  140.0301  159.3714 C.3     1  UNL1        0.0834
      7 C         139.7386  141.3883  158.9008 C.3     1  UNL1        0.1003
      8 H         136.5750  139.3727  156.8535 H       1  UNL1        0.1513
      9 C         135.3872  140.8609  155.8189 C.3     1  UNL1        0.1138
     10 C         133.9586  140.5941  156.1909 C.2     1  UNL1       -0.0202
     11 C         133.6402  139.6819  157.3382 C.2     1  UNL1       -0.0050
     12 C         132.2116  139.4152  157.7101 C.2     1  UNL1        0.0182
     13 C         131.1017  140.0606  156.9346 C.2     1  UNL1        0.0777
     14 N         129.6095  139.9867  157.0676 N.2     1  UNL1       -0.2442
     15 C         129.0057  140.8532  156.0024 C.2     1  UNL1        0.0985
     16 C         130.1248  141.4627  155.2111 C.2     1  UNL1        0.0182
     17 C         131.4202  140.9728  155.7873 C.2     1  UNL1        0.0011
     18 C         132.8487  141.2396  155.4154 C.3     1  UNL1        0.0515
     19 C         141.2771  139.5083  160.2351 C.3     1  UNL1        0.2087
     20 O         141.0941  138.2322  161.0020 O.3     1  UNL1       -0.4753
     21 C         140.3473  138.2395  162.3028 C.ar    1  UNL1        0.1385
     22 C         139.2011  139.1859  162.5041 C.ar    1  UNL1        0.0368
     23 C         138.4541  139.1932  163.8049 C.ar    1  UNL1        0.0070
     24 C         138.8534  138.2541  164.9043 C.ar    1  UNL1        0.0716
     25 C         139.9995  137.3077  164.7029 C.ar    1  UNL1        0.0070
     26 C         140.7465  137.3003  163.4021 C.ar    1  UNL1        0.0368
     27 C         138.1065  138.2613  166.2051 C.3     1  UNL1        0.4186
     28 F         137.3595  138.2685  167.5059 F       1  UNL1       -0.1659
     29 F         138.0205  136.7643  166.1641 F       1  UNL1       -0.1659
     30 F         138.1924  139.7583  166.2461 F       1  UNL1       -0.1659
@<TRIPOS>BOND
     1     1     2    2
     2     2     3   am
     3     3     9    1
     4     9    10    1
     5    10    11    2
     6    11    12    1
     7    12    13    2
     8    13    14    1
     9    14    15    2
    10    15    16    1
    11    16    17    2
    12    17    18    1
    13     2     4   am
    14     4     5    1
    15     5     6    1
    16     6    19    1
    17    19    20    1
    18    20    21    1
    19    21    22   ar
    20    22    23   ar
    21    23    24   ar
    22    24    27    1
    23    27    28    1
    24    27    29    1
    25    27    30    1
    26    24    25   ar
    27    25    26   ar
    28     6     7    1
    29    18    10    1
    30     7     4    1
    31    17    13    1
    32    26    21   ar
    33     3     8    1
