@<TRIPOS>MOLECULE
*****
 30 33 0 0 0
SMALL
GASTEIGER

@<TRIPOS>ATOM
      1 N         141.3538  140.0198  167.1268 N.pl3   1  UNL1       -0.2713
      2 C         142.6532  139.3044  167.3498 C.3     1  UNL1        0.0974
      3 C         143.3473  138.6346  166.2011 C.3     1  UNL1        0.0282
      4 C         142.7420  138.6802  164.8294 C.3     1  UNL1        0.0489
      5 C         141.4426  139.3955  164.6064 C.ar    1  UNL1        0.0723
      6 N         140.8373  139.4410  163.2347 N.ar    1  UNL1       -0.2511
      7 C         139.5379  140.1564  163.0117 C.ar    1  UNL1        0.0764
      8 C         138.8437  140.8263  164.1605 C.ar    1  UNL1        0.0176
      9 C         139.4491  140.7807  165.5321 C.ar    1  UNL1        0.0173
     10 C         140.7485  140.0653  165.7551 C.ar    1  UNL1        0.0664
     11 C         140.5415  144.2356  170.0537 C.3     1  UNL1        0.0737
     12 C         140.2535  142.7976  169.7390 C.ar    1  UNL1        0.1410
     13 N         139.2714  142.0294  170.5729 N.ar    1  UNL1       -0.2291
     14 C         138.9834  140.5914  170.2581 C.ar    1  UNL1        0.1031
     15 C         139.6776  139.9215  169.1094 C.ar    1  UNL1        0.0553
     16 C         140.6597  140.6897  168.2755 C.ar    1  UNL1        0.1383
     17 N         140.9477  142.1277  168.5903 N.ar    1  UNL1       -0.2157
     18 C         138.9326  140.2019  161.6401 C.3     1  UNL1        0.1121
     19 C         137.7725  139.3131  161.3023 C.3     1  UNL1        0.0278
     20 N         139.4874  141.1364  160.6061 N.am    1  UNL1       -0.2973
     21 C         138.8857  142.4986  160.4262 C.2     1  UNL1        0.2461
     22 O         137.7291  142.9263  161.2804 O.2     1  UNL1       -0.2701
     23 H         140.2465  140.8556  160.0455 H       1  UNL1        0.1500
     24 C         139.4405  143.4330  159.3923 C.ar    1  UNL1        0.0535
     25 C         140.2986  144.5901  159.8104 C.ar    1  UNL1        0.0068
     26 C         140.8533  145.5246  158.7764 C.ar    1  UNL1        0.0298
     27 C         140.5500  145.3019  157.3244 C.ar    1  UNL1        0.1401
     28 F         141.1048  146.2364  156.2905 F       1  UNL1       -0.2042
     29 C         139.6920  144.1448  156.9063 C.ar    1  UNL1        0.0298
     30 C         139.1372  143.2104  157.9402 C.ar    1  UNL1        0.0068
@<TRIPOS>BOND
     1    11    12    1
     2    12    13   ar
     3    13    14   ar
     4    14    15   ar
     5    15    16   ar
     6    16     1    1
     7     1     2    1
     8     2     3    1
     9     3     4    1
    10     4     5    1
    11     5     6   ar
    12     6     7   ar
    13     7    18    1
    14    18    19    1
    15    18    20    1
    16    20    21   am
    17    21    22    2
    18    21    24    1
    19    24    25   ar
    20    25    26   ar
    21    26    27   ar
    22    27    28    1
    23    27    29   ar
    24    29    30   ar
    25     7     8   ar
    26     8     9   ar
    27     9    10   ar
    28    16    17   ar
    29    17    12   ar
    30    10     1    1
    31    10     5   ar
    32    30    24   ar
    33    20    23    1
@<TRIPOS>MOLECULE
*****
 30 33 0 0 0
SMALL
GASTEIGER

@<TRIPOS>ATOM
      1 N         140.1308  140.2046  167.3450 N.pl3   1  UNL1       -0.2713
      2 C         138.8755  139.4365  167.0552 C.3     1  UNL1        0.0974
      3 C         138.7039  138.7515  165.7319 C.3     1  UNL1        0.0282
      4 C         139.7878  138.8345  164.6983 C.3     1  UNL1        0.0489
      5 C         141.0432  139.6026  164.9880 C.ar    1  UNL1        0.0723
      6 N         142.1271  139.6856  163.9544 N.ar    1  UNL1       -0.2511
      7 C         143.3825  140.4537  164.2442 C.ar    1  UNL1        0.0764
      8 C         143.5540  141.1388  165.5675 C.ar    1  UNL1        0.0176
      9 C         142.4702  141.0558  166.6011 C.ar    1  UNL1        0.0173
     10 C         141.2147  140.2876  166.3114 C.ar    1  UNL1        0.0664
     11 C         140.2419  144.5601  170.1764 C.3     1  UNL1        0.0737
     12 C         140.3579  143.0675  170.0840 C.ar    1  UNL1        0.1410
     13 N         140.6455  142.2599  171.3150 N.ar    1  UNL1       -0.2291
     14 C         140.7616  140.7673  171.2226 C.ar    1  UNL1        0.1031
     15 C         140.5900  140.0822  169.8992 C.ar    1  UNL1        0.0553
     16 C         140.3024  140.8897  168.6684 C.ar    1  UNL1        0.1383
     17 N         140.1864  142.3824  168.7608 N.ar    1  UNL1       -0.2157
     18 C         144.4663  140.5368  163.2106 C.3     1  UNL1        0.1121
     19 C         145.7083  141.3307  163.4883 C.3     1  UNL1        0.0278
     20 N         144.3082  139.8258  161.8992 N.am    1  UNL1       -0.2973
     21 C         143.5953  140.4974  160.7631 C.2     1  UNL1        0.2461
     22 O         143.0405  141.8800  160.9384 O.2     1  UNL1       -0.2701
     23 H         144.6723  138.9183  161.7842 H       1  UNL1        0.1500
     24 C         143.4372  139.7865  159.4518 C.ar    1  UNL1        0.0535
     25 C         143.8576  140.4590  158.1786 C.ar    1  UNL1        0.0068
     26 C         143.6994  139.7480  156.8673 C.ar    1  UNL1        0.0298
     27 C         143.1209  138.3646  156.8292 C.ar    1  UNL1        0.1401
     28 F         142.9627  137.6537  155.5179 F       1  UNL1       -0.2042
     29 C         142.7005  137.6921  158.1024 C.ar    1  UNL1        0.0298
     30 C         142.8586  138.4030  159.4137 C.ar    1  UNL1        0.0068
@<TRIPOS>BOND
     1    11    12    1
     2    12    13   ar
     3    13    14   ar
     4    14    15   ar
     5    15    16   ar
     6    16     1    1
     7     1     2    1
     8     2     3    1
     9     3     4    1
    10     4     5    1
    11     5     6   ar
    12     6     7   ar
    13     7    18    1
    14    18    19    1
    15    18    20    1
    16    20    21   am
    17    21    22    2
    18    21    24    1
    19    24    25   ar
    20    25    26   ar
    21    26    27   ar
    22    27    28    1
    23    27    29   ar
    24    29    30   ar
    25     7     8   ar
    26     8     9   ar
    27     9    10   ar
    28    16    17   ar
    29    17    12   ar
    30    10     1    1
    31    10     5   ar
    32    30    24   ar
    33    20    23    1
@<TRIPOS>MOLECULE
*****
 30 33 0 0 0
SMALL
GASTEIGER

@<TRIPOS>ATOM
      1 N         139.7363  140.9041  167.4178 N.pl3   1  UNL1       -0.2713
      2 C         139.1418  139.5274  167.4494 C.3     1  UNL1        0.0974
      3 C         138.4360  138.9874  166.2410 C.3     1  UNL1        0.0282
      4 C         138.3248  139.8241  165.0011 C.3     1  UNL1        0.0489
      5 C         138.9193  141.2009  164.9695 C.ar    1  UNL1        0.0723
      6 N         138.8081  142.0376  163.7296 N.ar    1  UNL1       -0.2511
      7 C         139.4026  143.4144  163.6980 C.ar    1  UNL1        0.0764
      8 C         140.1084  143.9545  164.9064 C.ar    1  UNL1        0.0176
      9 C         140.2197  143.1177  166.1464 C.ar    1  UNL1        0.0173
     10 C         139.6251  141.7409  166.1779 C.ar    1  UNL1        0.0664
     11 C         144.1121  142.4406  169.7612 C.3     1  UNL1        0.0737
     12 C         142.6300  142.2124  169.7979 C.ar    1  UNL1        0.1410
     13 N         141.8538  142.5243  171.0430 N.ar    1  UNL1       -0.2291
     14 C         140.3717  142.2960  171.0797 C.ar    1  UNL1        0.1031
     15 C         139.6659  141.7560  169.8713 C.ar    1  UNL1        0.0553
     16 C         140.4421  141.4442  168.6263 C.ar    1  UNL1        0.1383
     17 N         141.9242  141.6724  168.5896 N.ar    1  UNL1       -0.2157
     18 C         139.2914  144.2512  162.4581 C.3     1  UNL1        0.1121
     19 C         139.7520  145.6786  162.4727 C.3     1  UNL1        0.0278
     20 N         138.7195  143.6604  161.2034 N.am    1  UNL1       -0.2973
     21 C         139.6258  143.2968  160.0648 C.2     1  UNL1        0.2461
     22 O         141.1040  143.5239  160.1809 O.2     1  UNL1       -0.2701
     23 H         137.7493  143.5114  161.1273 H       1  UNL1        0.1500
     24 C         139.0540  142.7061  158.8103 C.ar    1  UNL1        0.0535
     25 C         138.2828  141.4209  158.8701 C.ar    1  UNL1        0.0068
     26 C         137.7110  140.8302  157.6154 C.ar    1  UNL1        0.0298
     27 C         137.9104  141.5247  156.3010 C.ar    1  UNL1        0.1401
     28 F         137.3386  140.9340  155.0464 F       1  UNL1       -0.2042
     29 C         138.6816  142.8098  156.2411 C.ar    1  UNL1        0.0298
     30 C         139.2534  143.4006  157.4957 C.ar    1  UNL1        0.0068
@<TRIPOS>BOND
     1    11    12    1
     2    12    13   ar
     3    13    14   ar
     4    14    15   ar
     5    15    16   ar
     6    16     1    1
     7     1     2    1
     8     2     3    1
     9     3     4    1
    10     4     5    1
    11     5     6   ar
    12     6     7   ar
    13     7    18    1
    14    18    19    1
    15    18    20    1
    16    20    21   am
    17    21    22    2
    18    21    24    1
    19    24    25   ar
    20    25    26   ar
    21    26    27   ar
    22    27    28    1
    23    27    29   ar
    24    29    30   ar
    25     7     8   ar
    26     8     9   ar
    27     9    10   ar
    28    16    17   ar
    29    17    12   ar
    30    10     1    1
    31    10     5   ar
    32    30    24   ar
    33    20    23    1
@<TRIPOS>MOLECULE
*****
 30 33 0 0 0
SMALL
GASTEIGER

@<TRIPOS>ATOM
      1 N         141.5606  138.6441  158.8221 N.pl3   1  UNL1       -0.2713
      2 C         140.0699  138.6609  158.6563 C.3     1  UNL1        0.0974
      3 C         139.1986  139.1876  159.7579 C.3     1  UNL1        0.0282
      4 C         139.8181  139.6975  161.0252 C.3     1  UNL1        0.0489
      5 C         141.3088  139.6808  161.1911 C.ar    1  UNL1        0.0723
      6 N         141.9282  140.1907  162.4584 N.ar    1  UNL1       -0.2511
      7 C         143.4189  140.1739  162.6243 C.ar    1  UNL1        0.0764
      8 C         144.2902  139.6472  161.5227 C.ar    1  UNL1        0.0176
      9 C         143.6708  139.1373  160.2553 C.ar    1  UNL1        0.0173
     10 C         142.1800  139.1541  160.0895 C.ar    1  UNL1        0.0664
     11 C         143.8104  134.6429  156.3872 C.3     1  UNL1        0.0737
     12 C         143.5568  136.1168  156.5031 C.ar    1  UNL1        0.1410
     13 N         144.1745  137.0639  155.5174 N.ar    1  UNL1       -0.2291
     14 C         143.9209  138.5378  155.6333 C.ar    1  UNL1        0.1031
     15 C         143.0495  139.0645  156.7349 C.ar    1  UNL1        0.0553
     16 C         142.4319  138.1174  157.7205 C.ar    1  UNL1        0.1383
     17 N         142.6855  136.6435  157.6046 N.ar    1  UNL1       -0.2157
     18 C         144.0383  140.6839  163.8916 C.3     1  UNL1        0.1121
     19 C         145.4852  141.0789  163.9132 C.3     1  UNL1        0.0278
     20 N         143.2108  140.7988  165.1375 N.am    1  UNL1       -0.2973
     21 C         142.8309  139.5653  165.9019 C.2     1  UNL1        0.2461
     22 O         143.2784  138.2170  165.4203 O.2     1  UNL1       -0.2701
     23 H         142.9171  141.6837  165.4535 H       1  UNL1        0.1500
     24 C         142.0034  139.6801  167.1477 C.ar    1  UNL1        0.0535
     25 C         140.5410  139.9992  167.0500 C.ar    1  UNL1        0.0068
     26 C         139.7135  140.1140  168.2959 C.ar    1  UNL1        0.0298
     27 C         140.3485  139.9098  169.6394 C.ar    1  UNL1        0.1401
     28 F         139.5211  140.0246  170.8852 F       1  UNL1       -0.2042
     29 C         141.8109  139.5907  169.7371 C.ar    1  UNL1        0.0298
     30 C         142.6384  139.4759  168.4913 C.ar    1  UNL1        0.0068
@<TRIPOS>BOND
     1    11    12    1
     2    12    13   ar
     3    13    14   ar
     4    14    15   ar
     5    15    16   ar
     6    16     1    1
     7     1     2    1
     8     2     3    1
     9     3     4    1
    10     4     5    1
    11     5     6   ar
    12     6     7   ar
    13     7    18    1
    14    18    19    1
    15    18    20    1
    16    20    21   am
    17    21    22    2
    18    21    24    1
    19    24    25   ar
    20    25    26   ar
    21    26    27   ar
    22    27    28    1
    23    27    29   ar
    24    29    30   ar
    25     7     8   ar
    26     8     9   ar
    27     9    10   ar
    28    16    17   ar
    29    17    12   ar
    30    10     1    1
    31    10     5   ar
    32    30    24   ar
    33    20    23    1
@<TRIPOS>MOLECULE
*****
 30 33 0 0 0
SMALL
GASTEIGER

@<TRIPOS>ATOM
      1 N         139.7881  140.9764  167.2921 N.pl3   1  UNL1       -0.2713
      2 C         139.0781  139.6552  167.3047 C.3     1  UNL1        0.0974
      3 C         138.4045  139.1540  166.0617 C.3     1  UNL1        0.0282
      4 C         138.4410  139.9739  164.8062 C.3     1  UNL1        0.0489
      5 C         139.1511  141.2951  164.7936 C.ar    1  UNL1        0.0723
      6 N         139.1876  142.1151  163.5381 N.ar    1  UNL1       -0.2511
      7 C         139.8976  143.4363  163.5256 C.ar    1  UNL1        0.0764
      8 C         140.5712  143.9376  164.7686 C.ar    1  UNL1        0.0176
      9 C         140.5347  143.1176  166.0241 C.ar    1  UNL1        0.0173
     10 C         139.8246  141.7964  166.0366 C.ar    1  UNL1        0.0664
     11 C         144.1016  142.4275  169.7999 C.3     1  UNL1        0.0737
     12 C         142.6185  142.2033  169.7890 C.ar    1  UNL1        0.1410
     13 N         141.8090  142.4803  171.0211 N.ar    1  UNL1       -0.2291
     14 C         140.3259  142.2561  171.0102 C.ar    1  UNL1        0.1031
     15 C         139.6523  141.7548  169.7672 C.ar    1  UNL1        0.0553
     16 C         140.4618  141.4777  168.5352 C.ar    1  UNL1        0.1383
     17 N         141.9449  141.7020  168.5460 N.ar    1  UNL1       -0.2157
     18 C         139.9341  144.2562  162.2700 C.3     1  UNL1        0.1121
     19 C         139.3173  145.6234  162.2489 C.3     1  UNL1        0.0278
     20 N         140.5874  143.7090  161.0356 N.am    1  UNL1       -0.2973
     21 C         142.0584  143.9043  160.8161 C.2     1  UNL1        0.2461
     22 O         142.8760  144.6470  161.8311 O.2     1  UNL1       -0.2701
     23 H         140.0508  143.2216  160.3695 H       1  UNL1        0.1500
     24 C         142.7117  143.3571  159.5818 C.ar    1  UNL1        0.0535
     25 C         142.0396  143.5053  158.2490 C.ar    1  UNL1        0.0068
     26 C         142.6930  142.9580  157.0146 C.ar    1  UNL1        0.0298
     27 C         144.0184  142.2627  157.1130 C.ar    1  UNL1        0.1401
     28 F         144.6718  141.7155  155.8787 F       1  UNL1       -0.2042
     29 C         144.6905  142.1146  158.4458 C.ar    1  UNL1        0.0298
     30 C         144.0372  142.6618  159.6802 C.ar    1  UNL1        0.0068
@<TRIPOS>BOND
     1    11    12    1
     2    12    13   ar
     3    13    14   ar
     4    14    15   ar
     5    15    16   ar
     6    16     1    1
     7     1     2    1
     8     2     3    1
     9     3     4    1
    10     4     5    1
    11     5     6   ar
    12     6     7   ar
    13     7    18    1
    14    18    19    1
    15    18    20    1
    16    20    21   am
    17    21    22    2
    18    21    24    1
    19    24    25   ar
    20    25    26   ar
    21    26    27   ar
    22    27    28    1
    23    27    29   ar
    24    29    30   ar
    25     7     8   ar
    26     8     9   ar
    27     9    10   ar
    28    16    17   ar
    29    17    12   ar
    30    10     1    1
    31    10     5   ar
    32    30    24   ar
    33    20    23    1
@<TRIPOS>MOLECULE
*****
 30 33 0 0 0
SMALL
GASTEIGER

@<TRIPOS>ATOM
      1 N         140.0011  140.3304  167.3048 N.pl3   1  UNL1       -0.2713
      2 C         138.8201  139.4114  167.2019 C.3     1  UNL1        0.0974
      3 C         138.4963  138.7498  165.8953 C.3     1  UNL1        0.0282
      4 C         139.3534  139.0072  164.6915 C.3     1  UNL1        0.0489
      5 C         140.5344  139.9262  164.7944 C.ar    1  UNL1        0.0723
      6 N         141.3915  140.1836  163.5906 N.ar    1  UNL1       -0.2511
      7 C         142.5725  141.1026  163.6935 C.ar    1  UNL1        0.0764
      8 C         142.8964  141.7643  165.0002 C.ar    1  UNL1        0.0176
      9 C         142.0392  141.5069  166.2039 C.ar    1  UNL1        0.0173
     10 C         140.8582  140.5878  166.1010 C.ar    1  UNL1        0.0664
     11 C         140.2928  144.6165  170.2280 C.3     1  UNL1        0.0737
     12 C         140.4708  143.1351  170.0730 C.ar    1  UNL1        0.1410
     13 N         140.9727  142.3155  171.2248 N.ar    1  UNL1       -0.2291
     14 C         141.1508  140.8342  171.0698 C.ar    1  UNL1        0.1031
     15 C         140.8269  140.1725  169.7631 C.ar    1  UNL1        0.0553
     16 C         140.3250  140.9921  168.6115 C.ar    1  UNL1        0.1383
     17 N         140.1470  142.4734  168.7664 N.ar    1  UNL1       -0.2157
     18 C         143.4296  141.3600  162.4897 C.3     1  UNL1        0.1121
     19 C         144.8932  141.0339  162.5276 C.3     1  UNL1        0.0278
     20 N         142.8231  141.9436  161.2481 N.am    1  UNL1       -0.2973
     21 C         142.8402  143.4278  161.0312 C.2     1  UNL1        0.2461
     22 O         143.4638  144.3283  162.0561 O.2     1  UNL1       -0.2701
     23 H         142.4138  141.3526  160.5755 H       1  UNL1        0.1500
     24 C         142.2337  144.0114  159.7897 C.ar    1  UNL1        0.0535
     25 C         141.0718  144.9543  159.8943 C.ar    1  UNL1        0.0068
     26 C         140.4653  145.5379  158.6527 C.ar    1  UNL1        0.0298
     27 C         141.0207  145.1786  157.3064 C.ar    1  UNL1        0.1401
     28 F         140.4142  145.7622  156.0649 F       1  UNL1       -0.2042
     29 C         142.1826  144.2357  157.2018 C.ar    1  UNL1        0.0298
     30 C         142.7891  143.6521  158.4433 C.ar    1  UNL1        0.0068
@<TRIPOS>BOND
     1    11    12    1
     2    12    13   ar
     3    13    14   ar
     4    14    15   ar
     5    15    16   ar
     6    16     1    1
     7     1     2    1
     8     2     3    1
     9     3     4    1
    10     4     5    1
    11     5     6   ar
    12     6     7   ar
    13     7    18    1
    14    18    19    1
    15    18    20    1
    16    20    21   am
    17    21    22    2
    18    21    24    1
    19    24    25   ar
    20    25    26   ar
    21    26    27   ar
    22    27    28    1
    23    27    29   ar
    24    29    30   ar
    25     7     8   ar
    26     8     9   ar
    27     9    10   ar
    28    16    17   ar
    29    17    12   ar
    30    10     1    1
    31    10     5   ar
    32    30    24   ar
    33    20    23    1
@<TRIPOS>MOLECULE
*****
 30 33 0 0 0
SMALL
GASTEIGER

@<TRIPOS>ATOM
      1 N         141.9900  143.7729  162.2736 N.pl3   1  UNL1       -0.2713
      2 C         141.2669  144.4494  163.4003 C.3     1  UNL1        0.0974
      3 C         140.2383  145.5011  163.1072 C.3     1  UNL1        0.0282
      4 C         139.9328  145.8763  161.6874 C.3     1  UNL1        0.0489
      5 C         140.6559  145.1998  160.5607 C.ar    1  UNL1        0.0723
      6 N         140.3504  145.5750  159.1409 N.ar    1  UNL1       -0.2511
      7 C         141.0735  144.8985  158.0142 C.ar    1  UNL1        0.0764
      8 C         142.1021  143.8468  158.3073 C.ar    1  UNL1        0.0176
      9 C         142.4076  143.4716  159.7271 C.ar    1  UNL1        0.0173
     10 C         141.6845  144.1481  160.8538 C.ar    1  UNL1        0.0664
     11 C         143.2565  138.7764  162.9304 C.3     1  UNL1        0.0737
     12 C         143.6518  140.2230  162.8951 C.ar    1  UNL1        0.1410
     13 N         145.0758  140.6178  163.1529 N.ar    1  UNL1       -0.2291
     14 C         145.4712  142.0643  163.1176 C.ar    1  UNL1        0.1031
     15 C         144.4426  143.1160  162.8245 C.ar    1  UNL1        0.0553
     16 C         143.0186  142.7212  162.5667 C.ar    1  UNL1        0.1383
     17 N         142.6233  141.2747  162.6020 N.ar    1  UNL1       -0.2157
     18 C         140.7680  145.2737  156.5943 C.3     1  UNL1        0.1121
     19 C         140.5960  144.2045  155.5565 C.3     1  UNL1        0.0278
     20 N         140.6344  146.7181  156.2124 N.am    1  UNL1       -0.2973
     21 C         139.3669  147.2128  155.5810 C.2     1  UNL1        0.2461
     22 O         138.2329  146.2630  155.3315 O.2     1  UNL1       -0.2701
     23 H         141.3786  147.3415  156.3762 H       1  UNL1        0.1500
     24 C         139.2333  148.6572  155.1991 C.ar    1  UNL1        0.0535
     25 C         138.5298  149.6134  156.1160 C.ar    1  UNL1        0.0068
     26 C         138.3962  151.0579  155.7340 C.ar    1  UNL1        0.0298
     27 C         138.9661  151.5460  154.4352 C.ar    1  UNL1        0.1401
     28 F         138.8325  152.9904  154.0533 F       1  UNL1       -0.2042
     29 C         139.6695  150.5897  153.5183 C.ar    1  UNL1        0.0298
     30 C         139.8031  149.1454  153.9002 C.ar    1  UNL1        0.0068
@<TRIPOS>BOND
     1    11    12    1
     2    12    13   ar
     3    13    14   ar
     4    14    15   ar
     5    15    16   ar
     6    16     1    1
     7     1     2    1
     8     2     3    1
     9     3     4    1
    10     4     5    1
    11     5     6   ar
    12     6     7   ar
    13     7    18    1
    14    18    19    1
    15    18    20    1
    16    20    21   am
    17    21    22    2
    18    21    24    1
    19    24    25   ar
    20    25    26   ar
    21    26    27   ar
    22    27    28    1
    23    27    29   ar
    24    29    30   ar
    25     7     8   ar
    26     8     9   ar
    27     9    10   ar
    28    16    17   ar
    29    17    12   ar
    30    10     1    1
    31    10     5   ar
    32    30    24   ar
    33    20    23    1
@<TRIPOS>MOLECULE
*****
 30 33 0 0 0
SMALL
GASTEIGER

@<TRIPOS>ATOM
      1 N         141.0265  144.9568  159.9149 N.pl3   1  UNL1       -0.2713
      2 C         139.9643  145.9222  160.3507 C.3     1  UNL1        0.0974
      3 C         139.7671  146.2122  161.8091 C.3     1  UNL1        0.0282
      4 C         140.6321  145.5369  162.8317 C.3     1  UNL1        0.0489
      5 C         141.6942  144.5715  162.3960 C.ar    1  UNL1        0.0723
      6 N         142.5592  143.8962  163.4186 N.ar    1  UNL1       -0.2511
      7 C         143.6213  142.9309  162.9829 C.ar    1  UNL1        0.0764
      8 C         143.8186  142.6408  161.5245 C.ar    1  UNL1        0.0176
      9 C         142.9536  143.3162  160.5018 C.ar    1  UNL1        0.0173
     10 C         141.8914  144.2815  160.9376 C.ar    1  UNL1        0.0664
     11 C         140.2752  141.8776  155.7974 C.3     1  UNL1        0.0737
     12 C         140.8481  143.1271  156.3978 C.ar    1  UNL1        0.1410
     13 N         141.6183  144.0866  155.5397 N.ar    1  UNL1       -0.2291
     14 C         142.1912  145.3362  156.1400 C.ar    1  UNL1        0.1031
     15 C         141.9939  145.6262  157.5984 C.ar    1  UNL1        0.0553
     16 C         141.2238  144.6668  158.4565 C.ar    1  UNL1        0.1383
     17 N         140.6508  143.4172  157.8561 N.ar    1  UNL1       -0.2157
     18 C         144.4863  142.2556  164.0056 C.3     1  UNL1        0.1121
     19 C         145.7818  141.6228  163.5920 C.3     1  UNL1        0.0278
     20 N         144.0556  142.2131  165.4419 N.am    1  UNL1       -0.2973
     21 C         143.1644  141.1077  165.9252 C.2     1  UNL1        0.2461
     22 O         142.7038  140.0447  164.9723 O.2     1  UNL1       -0.2701
     23 H         144.3579  142.9108  166.0672 H       1  UNL1        0.1500
     24 C         142.7337  141.0652  167.3614 C.ar    1  UNL1        0.0535
     25 C         143.0764  142.1995  168.2811 C.ar    1  UNL1        0.0068
     26 C         142.6457  142.1570  169.7173 C.ar    1  UNL1        0.0298
     27 C         141.8723  140.9801  170.2338 C.ar    1  UNL1        0.1401
     28 F         141.4416  140.9376  171.6700 F       1  UNL1       -0.2042
     29 C         141.5296  139.8457  169.3142 C.ar    1  UNL1        0.0298
     30 C         141.9603  139.8883  167.8780 C.ar    1  UNL1        0.0068
@<TRIPOS>BOND
     1    11    12    1
     2    12    13   ar
     3    13    14   ar
     4    14    15   ar
     5    15    16   ar
     6    16     1    1
     7     1     2    1
     8     2     3    1
     9     3     4    1
    10     4     5    1
    11     5     6   ar
    12     6     7   ar
    13     7    18    1
    14    18    19    1
    15    18    20    1
    16    20    21   am
    17    21    22    2
    18    21    24    1
    19    24    25   ar
    20    25    26   ar
    21    26    27   ar
    22    27    28    1
    23    27    29   ar
    24    29    30   ar
    25     7     8   ar
    26     8     9   ar
    27     9    10   ar
    28    16    17   ar
    29    17    12   ar
    30    10     1    1
    31    10     5   ar
    32    30    24   ar
    33    20    23    1
@<TRIPOS>MOLECULE
*****
 30 33 0 0 0
SMALL
GASTEIGER

@<TRIPOS>ATOM
      1 N         143.3403  139.8169  157.4390 N.pl3   1  UNL1       -0.2713
      2 C         143.7906  141.0670  156.7431 C.3     1  UNL1        0.0974
      3 C         144.3507  142.2083  157.5392 C.3     1  UNL1        0.0282
      4 C         144.4605  142.0993  159.0312 C.3     1  UNL1        0.0489
      5 C         144.0103  140.8492  159.7271 C.ar    1  UNL1        0.0723
      6 N         144.1202  140.7402  161.2191 N.ar    1  UNL1       -0.2511
      7 C         143.6699  139.4901  161.9150 C.ar    1  UNL1        0.0764
      8 C         143.1098  138.3488  161.1189 C.ar    1  UNL1        0.0176
      9 C         142.9999  138.4577  159.6269 C.ar    1  UNL1        0.0173
     10 C         143.4502  139.7080  158.9310 C.ar    1  UNL1        0.0664
     11 C         143.8850  135.0871  155.3574 C.3     1  UNL1        0.0737
     12 C         143.0526  136.3107  155.6021 C.ar    1  UNL1        0.1410
     13 N         141.6600  136.3930  155.0507 N.ar    1  UNL1       -0.2291
     14 C         140.8275  137.6165  155.2954 C.ar    1  UNL1        0.1031
     15 C         141.3876  138.7579  156.0915 C.ar    1  UNL1        0.0553
     16 C         142.7802  138.6756  156.6429 C.ar    1  UNL1        0.1383
     17 N         143.6126  137.4520  156.3982 N.ar    1  UNL1       -0.2157
     18 C         143.7798  139.3812  163.4070 C.3     1  UNL1        0.1121
     19 C         145.0487  139.7856  164.0971 C.3     1  UNL1        0.0278
     20 N         142.6207  138.8677  164.2089 N.am    1  UNL1       -0.2973
     21 C         141.3717  139.6892  164.3324 C.2     1  UNL1        0.2461
     22 O         141.2818  141.0241  163.6541 O.2     1  UNL1       -0.2701
     23 H         142.6797  137.9916  164.6541 H       1  UNL1        0.1500
     24 C         140.2127  139.1758  165.1342 C.ar    1  UNL1        0.0535
     25 C         139.7304  139.9416  166.3305 C.ar    1  UNL1        0.0068
     26 C         138.5713  139.4282  167.1323 C.ar    1  UNL1        0.0298
     27 C         137.8945  138.1491  166.7379 C.ar    1  UNL1        0.1401
     28 F         136.7354  137.6357  167.5398 F       1  UNL1       -0.2042
     29 C         138.3767  137.3832  165.5417 C.ar    1  UNL1        0.0298
     30 C         139.5358  137.8966  164.7399 C.ar    1  UNL1        0.0068
@<TRIPOS>BOND
     1    11    12    1
     2    12    13   ar
     3    13    14   ar
     4    14    15   ar
     5    15    16   ar
     6    16     1    1
     7     1     2    1
     8     2     3    1
     9     3     4    1
    10     4     5    1
    11     5     6   ar
    12     6     7   ar
    13     7    18    1
    14    18    19    1
    15    18    20    1
    16    20    21   am
    17    21    22    2
    18    21    24    1
    19    24    25   ar
    20    25    26   ar
    21    26    27   ar
    22    27    28    1
    23    27    29   ar
    24    29    30   ar
    25     7     8   ar
    26     8     9   ar
    27     9    10   ar
    28    16    17   ar
    29    17    12   ar
    30    10     1    1
    31    10     5   ar
    32    30    24   ar
    33    20    23    1
