@<TRIPOS>MOLECULE
*****
 35 40 0 0 0
SMALL
GASTEIGER

@<TRIPOS>ATOM
      1 C         139.6423  140.6685  164.9572 C.3     1  UNL1        0.1531
      2 C         140.8141  140.3858  164.0646 C.3     1  UNL1        0.1067
      3 N         140.6028  140.1708  162.5952 N.3     1  UNL1       -0.2665
      4 C         141.7746  139.8880  161.7024 C.3     1  UNL1        0.0940
      5 C         141.5634  139.6730  160.2331 C.3     1  UNL1        0.1107
      6 N         140.1803  139.7408  159.6564 N.am    1  UNL1       -0.2764
      7 C         139.9691  139.5257  158.1869 C.2     1  UNL1        0.2302
      8 O         138.5860  139.5935  157.6102 O.2     1  UNL1       -0.2745
      9 C         139.0085  140.0235  160.5490 C.3     1  UNL1        0.1119
     10 C         139.2198  140.2385  162.0185 C.3     1  UNL1        0.1075
     11 C         138.0480  140.5213  162.9112 C.3     1  UNL1        0.1601
     12 O         138.2593  140.7363  164.3806 O.3     1  UNL1       -0.3489
     13 C         140.1077  143.4364  166.0166 C.3     1  UNL1        0.0306
     14 C         140.0862  142.2674  166.9564 C.ar    1  UNL1       -0.0238
     15 C         139.8535  140.8835  166.4267 C.ar    1  UNL1        0.0018
     16 C         139.8321  139.7146  167.3664 C.ar    1  UNL1       -0.0020
     17 C         140.0433  139.9295  168.8358 C.ar    1  UNL1        0.0060
     18 C         140.2760  141.3135  169.3655 C.ar    1  UNL1        0.0748
     19 C         140.2975  142.4825  168.4258 C.ar    1  UNL1        0.0233
     20 C         140.5479  143.7216  169.2331 C.3     1  UNL1        0.2352
     21 O         140.6811  143.3185  170.6717 O.3     1  UNL1       -0.4404
     22 C         140.5131  141.8302  170.7535 C.2     1  UNL1        0.3413
     23 O         140.5719  141.0037  172.0040 O.2     1  UNL1       -0.2449
     24 C         141.1409  139.2430  157.2942 C.3     1  UNL1        0.1131
     25 C         141.4885  137.8278  156.9387 C.ar    1  UNL1        0.0062
     26 C         140.7019  137.1040  155.8864 C.ar    1  UNL1        0.0009
     27 C         141.0496  135.6888  155.5308 C.ar    1  UNL1        0.0386
     28 C         142.1839  134.9975  156.2276 C.ar    1  UNL1        0.1672
     29 N         142.9705  135.7213  157.2799 N.ar    1  UNL1       -0.2252
     30 C         142.6228  137.1365  157.6355 C.ar    1  UNL1        0.0968
     31 N         142.5315  133.5823  155.8721 N.ar    1  UNL1       -0.1708
     32 C         142.8771  133.0767  154.5028 C.ar    1  UNL1        0.2272
     33 N         143.1538  131.6061  154.6079 N.ar    1  UNL1       -0.1044
     34 N         142.9793  131.2029  156.0421 N.ar    1  UNL1       -0.0222
     35 N         142.5947  132.4243  156.8234 N.ar    1  UNL1       -0.0371
@<TRIPOS>BOND
     1    13    14    1
     2    14    15   ar
     3     1    15    1
     4     1     2    1
     5     2     3    1
     6     3     4    1
     7     4     5    1
     8     5     6    1
     9     6     7   am
    10     7     8    2
    11     7    24    1
    12    24    25    1
    13    25    26   ar
    14    26    27   ar
    15    27    28   ar
    16    28    31    1
    17    31    32   ar
    18    32    33   ar
    19    33    34   ar
    20    34    35   ar
    21    28    29   ar
    22    29    30   ar
    23     6     9    1
    24    10     9    1
    25    10    11    1
    26    11    12    1
    27    15    16   ar
    28    16    17   ar
    29    17    18   ar
    30    18    19   ar
    31    19    20    1
    32    20    21    1
    33    21    22    1
    34    22    23    2
    35    19    14   ar
    36    12     1    1
    37    22    18    1
    38    10     3    1
    39    30    25   ar
    40    35    31   ar
@<TRIPOS>MOLECULE
*****
 35 40 0 0 0
SMALL
GASTEIGER

@<TRIPOS>ATOM
      1 C         139.7837  140.3841  164.1083 C.3     1  UNL1        0.1531
      2 C         141.0001  140.1049  163.2763 C.3     1  UNL1        0.1067
      3 N         140.8483  139.6083  161.8690 N.3     1  UNL1       -0.2665
      4 C         142.0647  139.3291  161.0369 C.3     1  UNL1        0.0940
      5 C         141.9129  138.8326  159.6296 C.3     1  UNL1        0.1107
      6 N         140.5447  138.6152  159.0545 N.am    1  UNL1       -0.2764
      7 C         140.3930  138.1186  157.6471 C.2     1  UNL1        0.2302
      8 O         139.0248  137.9013  157.0720 O.2     1  UNL1       -0.2745
      9 C         139.3283  138.8944  159.8865 C.3     1  UNL1        0.1119
     10 C         139.4801  139.3910  161.2938 C.3     1  UNL1        0.1075
     11 C         138.2637  139.6702  162.1259 C.3     1  UNL1        0.1601
     12 O         138.4155  140.1667  163.5331 O.3     1  UNL1       -0.3489
     13 C         138.6538  138.7963  166.3893 C.3     1  UNL1        0.0306
     14 C         139.3705  140.0868  166.6561 C.ar    1  UNL1       -0.0238
     15 C         139.9354  140.8806  165.5156 C.ar    1  UNL1        0.0018
     16 C         140.6521  142.1711  165.7824 C.ar    1  UNL1       -0.0020
     17 C         140.8038  142.6676  167.1896 C.ar    1  UNL1        0.0060
     18 C         140.2389  141.8738  168.3302 C.ar    1  UNL1        0.0748
     19 C         139.5222  140.5833  168.0634 C.ar    1  UNL1        0.0233
     20 C         139.0740  140.0214  169.3798 C.3     1  UNL1        0.2352
     21 O         139.5135  140.9645  170.4603 O.3     1  UNL1       -0.4404
     22 C         140.2335  142.1093  169.8115 C.2     1  UNL1        0.3413
     23 O         140.8414  143.2835  170.5198 O.2     1  UNL1       -0.2449
     24 C         141.6094  137.8395  156.8151 C.3     1  UNL1        0.1131
     25 C         142.0732  136.4271  156.6151 C.ar    1  UNL1        0.0062
     26 C         141.4332  135.5691  155.5641 C.ar    1  UNL1        0.0009
     27 C         141.8971  134.1568  155.3642 C.ar    1  UNL1        0.0386
     28 C         143.0009  133.6023  156.2152 C.ar    1  UNL1        0.1672
     29 N         143.6408  134.4601  157.2661 N.ar    1  UNL1       -0.2252
     30 C         143.1770  135.8726  157.4661 C.ar    1  UNL1        0.0968
     31 N         143.4647  132.1899  156.0152 N.ar    1  UNL1       -0.1708
     32 C         142.5849  130.9796  155.9088 C.ar    1  UNL1        0.2272
     33 N         143.4663  129.7815  155.7144 N.ar    1  UNL1       -0.1044
     34 N         144.8908  130.2513  155.7006 N.ar    1  UNL1       -0.0222
     35 N         144.8898  131.7397  155.8865 N.ar    1  UNL1       -0.0371
@<TRIPOS>BOND
     1    13    14    1
     2    14    15   ar
     3     1    15    1
     4     1     2    1
     5     2     3    1
     6     3     4    1
     7     4     5    1
     8     5     6    1
     9     6     7   am
    10     7     8    2
    11     7    24    1
    12    24    25    1
    13    25    26   ar
    14    26    27   ar
    15    27    28   ar
    16    28    31    1
    17    31    32   ar
    18    32    33   ar
    19    33    34   ar
    20    34    35   ar
    21    28    29   ar
    22    29    30   ar
    23     6     9    1
    24    10     9    1
    25    10    11    1
    26    11    12    1
    27    15    16   ar
    28    16    17   ar
    29    17    18   ar
    30    18    19   ar
    31    19    20    1
    32    20    21    1
    33    21    22    1
    34    22    23    2
    35    19    14   ar
    36    12     1    1
    37    22    18    1
    38    10     3    1
    39    30    25   ar
    40    35    31   ar
@<TRIPOS>MOLECULE
*****
 35 40 0 0 0
SMALL
GASTEIGER

@<TRIPOS>ATOM
      1 C         139.8478  139.6453  163.7369 C.3     1  UNL1        0.1531
      2 C         140.9321  138.7455  163.2225 C.3     1  UNL1        0.1067
      3 N         141.1729  138.6293  161.7465 N.3     1  UNL1       -0.2665
      4 C         142.2573  137.7295  161.2321 C.3     1  UNL1        0.0940
      5 C         142.4981  137.6133  159.7561 C.3     1  UNL1        0.1107
      6 N         141.6547  138.3969  158.7946 N.am    1  UNL1       -0.2764
      7 C         141.8956  138.2807  157.3186 C.2     1  UNL1        0.2302
      8 O         141.0521  139.0642  156.3570 O.2     1  UNL1       -0.2745
      9 C         140.5704  139.2967  159.3090 C.3     1  UNL1        0.1119
     10 C         140.3295  139.4129  160.7850 C.3     1  UNL1        0.1075
     11 C         139.2452  140.3127  161.2994 C.3     1  UNL1        0.1601
     12 O         139.0043  140.4289  162.7753 O.3     1  UNL1       -0.3489
     13 C         141.5177  141.5132  165.3868 C.3     1  UNL1        0.0306
     14 C         140.4419  140.6954  166.0378 C.ar    1  UNL1       -0.0238
     15 C         139.6069  139.7615  165.2129 C.ar    1  UNL1        0.0018
     16 C         138.5310  138.9438  165.8639 C.ar    1  UNL1       -0.0020
     17 C         138.2901  139.0600  167.3398 C.ar    1  UNL1        0.0060
     18 C         139.1251  139.9939  168.1648 C.ar    1  UNL1        0.0748
     19 C         140.2010  140.8117  167.5138 C.ar    1  UNL1        0.0233
     20 C         140.8596  141.6409  168.5760 C.3     1  UNL1        0.2352
     21 O         140.1908  141.3358  169.8835 O.3     1  UNL1       -0.4404
     22 C         139.1188  140.3178  169.6293 C.2     1  UNL1        0.3413
     23 O         138.2016  139.7275  170.6590 O.2     1  UNL1       -0.2449
     24 C         142.9799  137.3809  156.8042 C.3     1  UNL1        0.1131
     25 C         142.6798  135.9431  156.4997 C.ar    1  UNL1        0.0062
     26 C         143.4519  134.8545  157.1843 C.ar    1  UNL1        0.0009
     27 C         143.1518  133.4167  156.8798 C.ar    1  UNL1        0.0386
     28 C         142.0796  133.0676  155.8906 C.ar    1  UNL1        0.1672
     29 N         141.3075  134.1561  155.2060 N.ar    1  UNL1       -0.2252
     30 C         141.6076  135.5940  155.5105 C.ar    1  UNL1        0.0968
     31 N         141.7796  131.6298  155.5861 N.ar    1  UNL1       -0.1708
     32 C         140.6707  131.1270  154.7100 C.ar    1  UNL1        0.2272
     33 N         140.7414  129.6287  154.6866 N.ar    1  UNL1       -0.1044
     34 N         141.8941  129.2057  155.5483 N.ar    1  UNL1       -0.0222
     35 N         142.5357  130.4424  156.1042 N.ar    1  UNL1       -0.0371
@<TRIPOS>BOND
     1    13    14    1
     2    14    15   ar
     3     1    15    1
     4     1     2    1
     5     2     3    1
     6     3     4    1
     7     4     5    1
     8     5     6    1
     9     6     7   am
    10     7     8    2
    11     7    24    1
    12    24    25    1
    13    25    26   ar
    14    26    27   ar
    15    27    28   ar
    16    28    31    1
    17    31    32   ar
    18    32    33   ar
    19    33    34   ar
    20    34    35   ar
    21    28    29   ar
    22    29    30   ar
    23     6     9    1
    24    10     9    1
    25    10    11    1
    26    11    12    1
    27    15    16   ar
    28    16    17   ar
    29    17    18   ar
    30    18    19   ar
    31    19    20    1
    32    20    21    1
    33    21    22    1
    34    22    23    2
    35    19    14   ar
    36    12     1    1
    37    22    18    1
    38    10     3    1
    39    30    25   ar
    40    35    31   ar
@<TRIPOS>MOLECULE
*****
 35 40 0 0 0
SMALL
GASTEIGER

@<TRIPOS>ATOM
      1 C         142.5592  140.8685  164.7603 C.3     1  UNL1        0.1531
      2 C         141.6779  140.0771  163.8401 C.3     1  UNL1        0.1067
      3 N         142.0726  139.8838  162.4059 N.3     1  UNL1       -0.2665
      4 C         141.1912  139.0924  161.4856 C.3     1  UNL1        0.0940
      5 C         141.5859  138.8991  160.0514 C.3     1  UNL1        0.1107
      6 N         142.8619  139.4973  159.5375 N.am    1  UNL1       -0.2764
      7 C         143.2566  139.3041  158.1033 C.2     1  UNL1        0.2302
      8 O         144.5325  139.9023  157.5894 O.2     1  UNL1       -0.2745
      9 C         143.7432  140.2888  160.4578 C.3     1  UNL1        0.1119
     10 C         143.3485  140.4820  161.8920 C.3     1  UNL1        0.1075
     11 C         144.2298  141.2734  162.8123 C.3     1  UNL1        0.1601
     12 O         143.8351  141.4667  164.2465 O.3     1  UNL1       -0.3489
     13 C         143.2770  138.7950  166.8062 C.3     1  UNL1        0.0306
     14 C         142.5234  140.0250  167.2175 C.ar    1  UNL1       -0.0238
     15 C         142.1645  141.0617  166.1946 C.ar    1  UNL1        0.0018
     16 C         141.4109  142.2918  166.6059 C.ar    1  UNL1       -0.0020
     17 C         141.0163  142.4851  168.0400 C.ar    1  UNL1        0.0060
     18 C         141.3752  141.4483  169.0630 C.ar    1  UNL1        0.0748
     19 C         142.1288  140.2183  168.6517 C.ar    1  UNL1        0.0233
     20 C         142.3420  139.3751  169.8737 C.3     1  UNL1        0.2352
     21 O         141.7203  140.0839  171.0403 O.3     1  UNL1       -0.4404
     22 C         141.1227  141.3653  170.5391 C.2     1  UNL1        0.3413
     23 O         140.3996  142.3846  171.3687 O.2     1  UNL1       -0.2449
     24 C         142.3753  138.5127  157.1830 C.3     1  UNL1        0.1131
     25 C         142.7521  137.1107  156.8054 C.ar    1  UNL1        0.0062
     26 C         142.9270  136.7442  155.3614 C.ar    1  UNL1        0.0009
     27 C         143.3038  135.3423  154.9839 C.ar    1  UNL1        0.0386
     28 C         143.5057  134.3068  156.0502 C.ar    1  UNL1        0.1672
     29 N         143.3307  134.6733  157.4942 N.ar    1  UNL1       -0.2252
     30 C         142.9539  136.0753  157.8718 C.ar    1  UNL1        0.0968
     31 N         143.8824  132.9049  155.6727 N.ar    1  UNL1       -0.1708
     32 C         143.3008  132.1099  154.5415 C.ar    1  UNL1        0.2272
     33 N         143.9660  130.7654  154.5297 N.ar    1  UNL1       -0.1044
     34 N         144.9587  130.7295  155.6537 N.ar    1  UNL1       -0.0222
     35 N         144.9071  132.0518  156.3600 N.ar    1  UNL1       -0.0371
@<TRIPOS>BOND
     1    13    14    1
     2    14    15   ar
     3     1    15    1
     4     1     2    1
     5     2     3    1
     6     3     4    1
     7     4     5    1
     8     5     6    1
     9     6     7   am
    10     7     8    2
    11     7    24    1
    12    24    25    1
    13    25    26   ar
    14    26    27   ar
    15    27    28   ar
    16    28    31    1
    17    31    32   ar
    18    32    33   ar
    19    33    34   ar
    20    34    35   ar
    21    28    29   ar
    22    29    30   ar
    23     6     9    1
    24    10     9    1
    25    10    11    1
    26    11    12    1
    27    15    16   ar
    28    16    17   ar
    29    17    18   ar
    30    18    19   ar
    31    19    20    1
    32    20    21    1
    33    21    22    1
    34    22    23    2
    35    19    14   ar
    36    12     1    1
    37    22    18    1
    38    10     3    1
    39    30    25   ar
    40    35    31   ar
@<TRIPOS>MOLECULE
*****
 35 40 0 0 0
SMALL
GASTEIGER

@<TRIPOS>ATOM
      1 C         140.1779  140.8786  163.9958 C.3     1  UNL1        0.1531
      2 C         139.1170  141.4981  163.1352 C.3     1  UNL1        0.1067
      3 N         139.3436  141.6535  161.6607 N.3     1  UNL1       -0.2665
      4 C         138.2826  142.2731  160.8000 C.3     1  UNL1        0.0940
      5 C         138.5092  142.4285  159.3254 C.3     1  UNL1        0.1107
      6 N         139.7968  141.9645  158.7114 N.am    1  UNL1       -0.2764
      7 C         140.0233  142.1200  157.2367 C.2     1  UNL1        0.2302
      8 O         141.3108  141.6559  156.6227 O.2     1  UNL1       -0.2745
      9 C         140.8577  141.3450  159.5720 C.3     1  UNL1        0.1119
     10 C         140.6311  141.1895  161.0467 C.3     1  UNL1        0.1075
     11 C         141.6920  140.5700  161.9073 C.3     1  UNL1        0.1601
     12 O         141.4654  140.4146  163.3818 O.3     1  UNL1       -0.3489
     13 C         141.3337  142.8785  165.9102 C.3     1  UNL1        0.0306
     14 C         140.5292  141.7231  166.4276 C.ar    1  UNL1       -0.0238
     15 C         139.9513  140.7231  165.4705 C.ar    1  UNL1        0.0018
     16 C         139.1468  139.5677  165.9880 C.ar    1  UNL1       -0.0020
     17 C         138.9202  139.4122  167.4625 C.ar    1  UNL1        0.0060
     18 C         139.4982  140.4121  168.4197 C.ar    1  UNL1        0.0748
     19 C         140.3026  141.5676  167.9023 C.ar    1  UNL1        0.0233
     20 C         140.7441  142.3883  169.0776 C.3     1  UNL1        0.2352
     21 O         140.2125  141.7401  170.3215 O.3     1  UNL1       -0.4404
     22 C         139.4425  140.5188  169.9148 C.2     1  UNL1        0.3413
     23 O         138.7400  139.5705  170.8409 O.2     1  UNL1       -0.2449
     24 C         138.9624  142.7394  156.3762 C.3     1  UNL1        0.1131
     25 C         138.9679  144.2186  156.1270 C.ar    1  UNL1        0.0062
     26 C         139.9693  145.0926  156.8223 C.ar    1  UNL1        0.0009
     27 C         139.9748  146.5717  156.5731 C.ar    1  UNL1        0.0386
     28 C         138.9790  147.1769  155.6286 C.ar    1  UNL1        0.1672
     29 N         137.9777  146.3029  154.9333 N.ar    1  UNL1       -0.2252
     30 C         137.9721  144.8237  155.1824 C.ar    1  UNL1        0.0968
     31 N         138.9845  148.6560  155.3794 N.ar    1  UNL1       -0.1708
     32 C         138.3046  149.6945  156.2215 C.ar    1  UNL1        0.2272
     33 N         138.5708  151.0368  155.6069 N.ar    1  UNL1       -0.1044
     34 N         139.4152  150.8277  154.3848 N.ar    1  UNL1       -0.0222
     35 N         139.6709  149.3564  154.2442 N.ar    1  UNL1       -0.0371
@<TRIPOS>BOND
     1    13    14    1
     2    14    15   ar
     3     1    15    1
     4     1     2    1
     5     2     3    1
     6     3     4    1
     7     4     5    1
     8     5     6    1
     9     6     7   am
    10     7     8    2
    11     7    24    1
    12    24    25    1
    13    25    26   ar
    14    26    27   ar
    15    27    28   ar
    16    28    31    1
    17    31    32   ar
    18    32    33   ar
    19    33    34   ar
    20    34    35   ar
    21    28    29   ar
    22    29    30   ar
    23     6     9    1
    24    10     9    1
    25    10    11    1
    26    11    12    1
    27    15    16   ar
    28    16    17   ar
    29    17    18   ar
    30    18    19   ar
    31    19    20    1
    32    20    21    1
    33    21    22    1
    34    22    23    2
    35    19    14   ar
    36    12     1    1
    37    22    18    1
    38    10     3    1
    39    30    25   ar
    40    35    31   ar
@<TRIPOS>MOLECULE
*****
 35 40 0 0 0
SMALL
GASTEIGER

@<TRIPOS>ATOM
      1 C         142.2379  140.3629  165.0552 C.3     1  UNL1        0.1531
      2 C         142.3771  141.4504  164.0316 C.3     1  UNL1        0.1067
      3 N         142.6483  141.1010  162.5983 N.3     1  UNL1       -0.2665
      4 C         142.7875  142.1885  161.5746 C.3     1  UNL1        0.0940
      5 C         143.0587  141.8391  160.1413 C.3     1  UNL1        0.1107
      6 N         143.1907  140.4022  159.7316 N.am    1  UNL1       -0.2764
      7 C         143.4619  140.0528  158.2983 C.2     1  UNL1        0.2302
      8 O         143.5938  138.6159  157.8886 O.2     1  UNL1       -0.2745
      9 C         143.0514  139.3147  160.7553 C.3     1  UNL1        0.1119
     10 C         142.7802  139.6641  162.1886 C.3     1  UNL1        0.1075
     11 C         142.6410  138.5765  163.2123 C.3     1  UNL1        0.1601
     12 O         142.3698  138.9260  164.6455 O.3     1  UNL1       -0.3489
     13 C         139.6658  139.5143  166.3453 C.3     1  UNL1        0.0306
     14 C         140.6807  140.2880  167.1335 C.ar    1  UNL1       -0.0238
     15 C         141.9667  140.7123  166.4885 C.ar    1  UNL1        0.0018
     16 C         142.9816  141.4860  167.2768 C.ar    1  UNL1       -0.0020
     17 C         142.7104  141.8354  168.7101 C.ar    1  UNL1        0.0060
     18 C         141.4244  141.4110  169.3552 C.ar    1  UNL1        0.0748
     19 C         140.4095  140.6373  168.5669 C.ar    1  UNL1        0.0233
     20 C         139.2409  140.3571  169.4645 C.3     1  UNL1        0.2352
     21 O         139.5335  140.9576  170.8075 O.3     1  UNL1       -0.4404
     22 C         140.8830  141.6090  170.7399 C.2     1  UNL1        0.3413
     23 O         141.5703  142.3314  171.8605 O.2     1  UNL1       -0.2449
     24 C         143.6011  141.1403  157.2746 C.3     1  UNL1        0.1131
     25 C         144.9325  141.4026  156.6354 C.ar    1  UNL1        0.0062
     26 C         145.8883  142.3727  157.2643 C.ar    1  UNL1        0.0009
     27 C         147.2197  142.6350  156.6251 C.ar    1  UNL1        0.0386
     28 C         147.5953  141.9272  155.3570 C.ar    1  UNL1        0.1672
     29 N         146.6395  140.9572  154.7282 N.ar    1  UNL1       -0.2252
     30 C         145.3081  140.6948  155.3674 C.ar    1  UNL1        0.0968
     31 N         148.9266  142.1895  154.7178 N.ar    1  UNL1       -0.1708
     32 C         150.2258  141.5367  155.0869 C.ar    1  UNL1        0.2272
     33 N         151.2948  142.0944  154.1944 N.ar    1  UNL1       -0.1044
     34 N         150.6562  143.0919  153.2738 N.ar    1  UNL1       -0.0222
     35 N         149.1927  143.1506  153.5973 N.ar    1  UNL1       -0.0371
@<TRIPOS>BOND
     1    13    14    1
     2    14    15   ar
     3     1    15    1
     4     1     2    1
     5     2     3    1
     6     3     4    1
     7     4     5    1
     8     5     6    1
     9     6     7   am
    10     7     8    2
    11     7    24    1
    12    24    25    1
    13    25    26   ar
    14    26    27   ar
    15    27    28   ar
    16    28    31    1
    17    31    32   ar
    18    32    33   ar
    19    33    34   ar
    20    34    35   ar
    21    28    29   ar
    22    29    30   ar
    23     6     9    1
    24    10     9    1
    25    10    11    1
    26    11    12    1
    27    15    16   ar
    28    16    17   ar
    29    17    18   ar
    30    18    19   ar
    31    19    20    1
    32    20    21    1
    33    21    22    1
    34    22    23    2
    35    19    14   ar
    36    12     1    1
    37    22    18    1
    38    10     3    1
    39    30    25   ar
    40    35    31   ar
@<TRIPOS>MOLECULE
*****
 35 40 0 0 0
SMALL
GASTEIGER

@<TRIPOS>ATOM
      1 C         143.6564  140.2931  158.2343 C.3     1  UNL1        0.1531
      2 C         142.8177  141.1910  159.0946 C.3     1  UNL1        0.1067
      3 N         141.9380  140.6034  160.1580 N.3     1  UNL1       -0.2665
      4 C         141.0992  141.5014  161.0183 C.3     1  UNL1        0.0940
      5 C         140.2196  140.9138  162.0817 C.3     1  UNL1        0.1107
      6 N         140.1787  139.4281  162.2849 N.am    1  UNL1       -0.2764
      7 C         139.2990  138.8405  163.3484 C.2     1  UNL1        0.2302
      8 O         139.2581  137.3549  163.5515 O.2     1  UNL1       -0.2745
      9 C         141.0175  138.5302  161.4246 C.3     1  UNL1        0.1119
     10 C         141.8972  139.1178  160.3612 C.3     1  UNL1        0.1075
     11 C         142.7359  138.2198  159.5009 C.3     1  UNL1        0.1601
     12 O         143.6156  138.8074  158.4375 O.3     1  UNL1       -0.3489
     13 C         143.2514  139.5295  155.3615 C.3     1  UNL1        0.0306
     14 C         144.3336  140.4989  155.7345 C.ar    1  UNL1       -0.0238
     15 C         144.5361  140.8807  157.1709 C.ar    1  UNL1        0.0018
     16 C         145.6184  141.8501  157.5438 C.ar    1  UNL1       -0.0020
     17 C         146.4980  142.4377  156.4805 C.ar    1  UNL1        0.0060
     18 C         146.2955  142.0559  155.0440 C.ar    1  UNL1        0.0748
     19 C         145.2133  141.0865  154.6710 C.ar    1  UNL1        0.0233
     20 C         145.2507  140.9000  153.1832 C.3     1  UNL1        0.2352
     21 O         146.3560  141.7541  152.6366 O.3     1  UNL1       -0.4404
     22 C         147.0017  142.4685  153.7867 C.2     1  UNL1        0.3413
     23 O         148.1518  143.4272  153.6954 O.2     1  UNL1       -0.2449
     24 C         138.4603  139.7385  164.2086 C.3     1  UNL1        0.1131
     25 C         138.9205  140.0973  165.5904 C.ar    1  UNL1        0.0062
     26 C         139.7592  141.3220  165.8072 C.ar    1  UNL1        0.0009
     27 C         140.2194  141.6808  167.1890 C.ar    1  UNL1        0.0386
     28 C         139.8409  140.8151  168.3540 C.ar    1  UNL1        0.1672
     29 N         139.0023  139.5905  168.1373 N.ar    1  UNL1       -0.2252
     30 C         138.5420  139.2316  166.7554 C.ar    1  UNL1        0.0968
     31 N         140.3011  141.1739  169.7358 N.ar    1  UNL1       -0.1708
     32 C         141.4661  140.5693  170.4619 C.ar    1  UNL1        0.2272
     33 N         141.5622  141.2221  171.8091 N.ar    1  UNL1       -0.1044
     34 N         140.4565  142.2302  171.9155 N.ar    1  UNL1       -0.0222
     35 N         139.6772  142.2004  170.6342 N.ar    1  UNL1       -0.0371
@<TRIPOS>BOND
     1    13    14    1
     2    14    15   ar
     3     1    15    1
     4     1     2    1
     5     2     3    1
     6     3     4    1
     7     4     5    1
     8     5     6    1
     9     6     7   am
    10     7     8    2
    11     7    24    1
    12    24    25    1
    13    25    26   ar
    14    26    27   ar
    15    27    28   ar
    16    28    31    1
    17    31    32   ar
    18    32    33   ar
    19    33    34   ar
    20    34    35   ar
    21    28    29   ar
    22    29    30   ar
    23     6     9    1
    24    10     9    1
    25    10    11    1
    26    11    12    1
    27    15    16   ar
    28    16    17   ar
    29    17    18   ar
    30    18    19   ar
    31    19    20    1
    32    20    21    1
    33    21    22    1
    34    22    23    2
    35    19    14   ar
    36    12     1    1
    37    22    18    1
    38    10     3    1
    39    30    25   ar
    40    35    31   ar
@<TRIPOS>MOLECULE
*****
 35 40 0 0 0
SMALL
GASTEIGER

@<TRIPOS>ATOM
      1 C         140.1195  145.1111  157.3857 C.3     1  UNL1        0.1531
      2 C         141.1471  145.2352  158.4713 C.3     1  UNL1        0.1067
      3 N         141.2372  144.1885  159.5419 N.3     1  UNL1       -0.2665
      4 C         142.2648  144.3126  160.6276 C.3     1  UNL1        0.0940
      5 C         142.3550  143.2658  161.6981 C.3     1  UNL1        0.1107
      6 N         141.4176  142.0949  161.6831 N.am    1  UNL1       -0.2764
      7 C         141.5078  141.0481  162.7537 C.2     1  UNL1        0.2302
      8 O         140.5703  139.8772  162.7386 O.2     1  UNL1       -0.2745
      9 C         140.3900  141.9708  160.5974 C.3     1  UNL1        0.1119
     10 C         140.2998  143.0176  159.5268 C.3     1  UNL1        0.1075
     11 C         139.2722  142.8934  158.4412 C.3     1  UNL1        0.1601
     12 O         139.1820  143.9402  157.3707 O.3     1  UNL1       -0.3489
     13 C         141.6830  144.7966  154.8447 C.3     1  UNL1        0.0306
     14 C         140.8110  146.0006  155.0446 C.ar    1  UNL1       -0.0238
     15 C         140.0293  146.1579  156.3151 C.ar    1  UNL1        0.0018
     16 C         139.1573  147.3619  156.5150 C.ar    1  UNL1       -0.0020
     17 C         139.0671  148.4087  155.4445 C.ar    1  UNL1        0.0060
     18 C         139.8488  148.2514  154.1739 C.ar    1  UNL1        0.0748
     19 C         140.7208  147.0474  153.9740 C.ar    1  UNL1        0.0233
     20 C         141.3699  147.1638  152.6269 C.3     1  UNL1        0.2352
     21 O         140.8992  148.4397  151.9941 O.3     1  UNL1       -0.4404
     22 C         139.9591  149.1119  152.9503 C.2     1  UNL1        0.3413
     23 O         139.2532  150.4157  152.7227 O.2     1  UNL1       -0.2449
     24 C         142.5354  141.1723  163.8393 C.3     1  UNL1        0.1131
     25 C         142.1045  141.4118  165.2559 C.ar    1  UNL1        0.0062
     26 C         141.0459  142.4314  165.5557 C.ar    1  UNL1        0.0009
     27 C         140.6150  142.6710  166.9723 C.ar    1  UNL1        0.0386
     28 C         141.2427  141.8910  168.0893 C.ar    1  UNL1        0.1672
     29 N         142.3013  140.8715  167.7896 N.ar    1  UNL1       -0.2252
     30 C         142.7322  140.6318  166.3729 C.ar    1  UNL1        0.0968
     31 N         140.8118  142.1306  169.5059 N.ar    1  UNL1       -0.1708
     32 C         141.3419  141.4266  170.7198 C.ar    1  UNL1        0.2272
     33 N         140.6329  141.9772  171.9216 N.ar    1  UNL1       -0.1044
     34 N         139.6646  143.0214  171.4504 N.ar    1  UNL1       -0.0222
     35 N         139.7751  143.1163  169.9575 N.ar    1  UNL1       -0.0371
@<TRIPOS>BOND
     1    13    14    1
     2    14    15   ar
     3     1    15    1
     4     1     2    1
     5     2     3    1
     6     3     4    1
     7     4     5    1
     8     5     6    1
     9     6     7   am
    10     7     8    2
    11     7    24    1
    12    24    25    1
    13    25    26   ar
    14    26    27   ar
    15    27    28   ar
    16    28    31    1
    17    31    32   ar
    18    32    33   ar
    19    33    34   ar
    20    34    35   ar
    21    28    29   ar
    22    29    30   ar
    23     6     9    1
    24    10     9    1
    25    10    11    1
    26    11    12    1
    27    15    16   ar
    28    16    17   ar
    29    17    18   ar
    30    18    19   ar
    31    19    20    1
    32    20    21    1
    33    21    22    1
    34    22    23    2
    35    19    14   ar
    36    12     1    1
    37    22    18    1
    38    10     3    1
    39    30    25   ar
    40    35    31   ar
@<TRIPOS>MOLECULE
*****
 35 40 0 0 0
SMALL
GASTEIGER

@<TRIPOS>ATOM
      1 C         141.3495  142.2848  164.8612 C.3     1  UNL1        0.1531
      2 C         141.6236  141.3734  163.7018 C.3     1  UNL1        0.1067
      3 N         141.8596  141.9473  162.3362 N.3     1  UNL1       -0.2665
      4 C         142.1338  141.0359  161.1767 C.3     1  UNL1        0.0940
      5 C         142.3698  141.6097  159.8111 C.3     1  UNL1        0.1107
      6 N         142.3317  143.0950  159.6049 N.am    1  UNL1       -0.2764
      7 C         142.5677  143.6689  158.2392 C.2     1  UNL1        0.2302
      8 O         142.5295  145.1541  158.0330 O.2     1  UNL1       -0.2745
      9 C         142.0575  144.0064  160.7643 C.3     1  UNL1        0.1119
     10 C         141.8215  143.4325  162.1300 C.3     1  UNL1        0.1075
     11 C         141.5474  144.3439  163.2893 C.3     1  UNL1        0.1601
     12 O         141.3114  143.7700  164.6549 O.3     1  UNL1       -0.3489
     13 C         143.4760  142.4991  166.9664 C.3     1  UNL1        0.0306
     14 C         142.1767  141.8181  167.2794 C.ar    1  UNL1       -0.0238
     15 C         141.1135  141.7109  166.2269 C.ar    1  UNL1        0.0018
     16 C         139.8142  141.0298  166.5399 C.ar    1  UNL1       -0.0020
     17 C         139.5781  140.4560  167.9055 C.ar    1  UNL1        0.0060
     18 C         140.6414  140.5632  168.9582 C.ar    1  UNL1        0.0748
     19 C         141.9407  141.2442  168.6451 C.ar    1  UNL1        0.0233
     20 C         142.7964  141.1984  169.8762 C.3     1  UNL1        0.2352
     21 O         142.0260  140.4891  170.9501 O.3     1  UNL1       -0.4404
     22 C         140.6941  140.0965  170.3826 C.2     1  UNL1        0.3413
     23 O         139.6060  139.3655  171.1119 O.2     1  UNL1       -0.2449
     24 C         142.8418  142.7575  157.0798 C.3     1  UNL1        0.1131
     25 C         144.2274  142.6602  156.5137 C.ar    1  UNL1        0.0062
     26 C         145.3883  142.3685  157.4178 C.ar    1  UNL1        0.0009
     27 C         146.7739  142.2712  156.8516 C.ar    1  UNL1        0.0386
     28 C         146.9987  142.4657  155.3814 C.ar    1  UNL1        0.1672
     29 N         145.8380  142.7574  154.4773 N.ar    1  UNL1       -0.2252
     30 C         144.4523  142.8547  155.0434 C.ar    1  UNL1        0.0968
     31 N         148.3844  142.3684  154.8152 N.ar    1  UNL1       -0.1708
     32 C         148.8600  142.9915  153.5363 C.ar    1  UNL1        0.2272
     33 N         150.3073  142.6391  153.3592 N.ar    1  UNL1       -0.1044
     34 N         150.7261  141.7982  154.5287 N.ar    1  UNL1       -0.0222
     35 N         149.5377  141.6309  155.4285 N.ar    1  UNL1       -0.0371
@<TRIPOS>BOND
     1    13    14    1
     2    14    15   ar
     3     1    15    1
     4     1     2    1
     5     2     3    1
     6     3     4    1
     7     4     5    1
     8     5     6    1
     9     6     7   am
    10     7     8    2
    11     7    24    1
    12    24    25    1
    13    25    26   ar
    14    26    27   ar
    15    27    28   ar
    16    28    31    1
    17    31    32   ar
    18    32    33   ar
    19    33    34   ar
    20    34    35   ar
    21    28    29   ar
    22    29    30   ar
    23     6     9    1
    24    10     9    1
    25    10    11    1
    26    11    12    1
    27    15    16   ar
    28    16    17   ar
    29    17    18   ar
    30    18    19   ar
    31    19    20    1
    32    20    21    1
    33    21    22    1
    34    22    23    2
    35    19    14   ar
    36    12     1    1
    37    22    18    1
    38    10     3    1
    39    30    25   ar
    40    35    31   ar
