@<TRIPOS>MOLECULE
*****
 27 29 0 0 0
SMALL
GASTEIGER

@<TRIPOS>ATOM
      1 C         139.4102  140.9288  170.3060 C.3     1  UNL1        0.0518
      2 C         139.5852  140.6995  168.8339 C.ar    1  UNL1        0.0568
      3 N         138.9475  139.5101  168.1793 N.ar    1  UNL1       -0.2456
      4 C         139.1224  139.2807  166.7073 C.ar    1  UNL1        0.1319
      5 C         139.9351  140.2407  165.8900 C.ar    1  UNL1        0.0196
      6 C         140.5728  141.4301  166.5446 C.ar    1  UNL1       -0.0015
      7 C         140.3978  141.6594  168.0167 C.ar    1  UNL1        0.0068
      8 C         139.9321  139.7583  164.4696 C.3     1  UNL1        0.1222
      9 N         139.1176  138.5002  164.4092 N.am    1  UNL1       -0.2681
     10 C         138.6172  138.2050  165.7921 C.2     1  UNL1        0.2668
     11 O         137.7618  137.0388  166.1899 O.2     1  UNL1       -0.2683
     12 C         141.3855  142.3902  165.7274 C.ar    1  UNL1        0.0102
     13 C         142.8707  142.2110  165.6174 C.ar    1  UNL1        0.0017
     14 C         143.6834  143.1711  164.8002 C.ar    1  UNL1        0.0114
     15 C         143.0109  144.3102  164.0930 C.ar    1  UNL1        0.0585
     16 CL        143.8237  145.2702  163.2758 Cl      1  UNL1       -0.0822
     17 C         141.5257  144.4893  164.2030 C.ar    1  UNL1        0.0228
     18 C         140.7130  143.5293  165.0202 C.ar    1  UNL1        0.0585
     19 CL        139.2278  143.7084  165.1302 Cl      1  UNL1       -0.0822
     20 C         141.0356  142.8489  168.6714 C.3     1  UNL1        0.0934
     21 N         142.4193  142.7398  169.2402 N.3     1  UNL1       -0.3174
     22 H         142.4125  142.0937  170.0295 H       1  UNL1        0.1192
     23 H         142.7307  143.6585  169.5555 H       1  UNL1        0.1192
     24 C         138.8504  137.6811  163.1813 C.3     1  UNL1        0.1257
     25 C         138.1686  138.3027  161.9987 C.3     1  UNL1        0.1586
     26 O         137.3687  139.5601  162.1695 O.3     1  UNL1       -0.3802
     27 H         136.5951  139.3782  162.7257 H       1  UNL1        0.2105
@<TRIPOS>BOND
     1     1     2    1
     2     2     3   ar
     3     3     4   ar
     4     4     5   ar
     5     5     6   ar
     6     6    12    1
     7    12    13   ar
     8    13    14   ar
     9    14    15   ar
    10    15    16    1
    11    15    17   ar
    12    17    18   ar
    13    18    19    1
    14     6     7   ar
    15     7    20    1
    16    20    21    1
    17     5     8    1
    18     8     9    1
    19     9    24    1
    20    24    25    1
    21    25    26    1
    22     9    10   am
    23    10    11    2
    24     7     2   ar
    25    10     4    1
    26    18    12   ar
    27    21    22    1
    28    21    23    1
    29    26    27    1
@<TRIPOS>MOLECULE
*****
 27 29 0 0 0
SMALL
GASTEIGER

@<TRIPOS>ATOM
      1 C         138.7822  137.7268  164.8979 C.3     1  UNL1        0.0518
      2 C         139.1739  139.0698  165.4394 C.ar    1  UNL1        0.0568
      3 N         139.5546  139.2144  166.8830 N.ar    1  UNL1       -0.2456
      4 C         139.9463  140.5573  167.4245 C.ar    1  UNL1        0.1319
      5 C         139.9573  141.7556  166.5223 C.ar    1  UNL1        0.0196
      6 C         139.5766  141.6110  165.0787 C.ar    1  UNL1       -0.0015
      7 C         139.1849  140.2681  164.5372 C.ar    1  UNL1        0.0068
      8 C         140.3848  142.9427  167.3335 C.3     1  UNL1        0.1222
      9 N         140.6380  142.4780  168.7371 N.am    1  UNL1       -0.2681
     10 C         140.3670  141.0038  168.7933 C.2     1  UNL1        0.2668
     11 O         140.4944  140.1295  170.0055 O.2     1  UNL1       -0.2683
     12 C         139.5875  142.8093  164.1764 C.ar    1  UNL1        0.0102
     13 C         138.3281  143.5938  163.9562 C.ar    1  UNL1        0.0017
     14 C         138.3390  144.7920  163.0539 C.ar    1  UNL1        0.0114
     15 C         139.6093  145.2058  162.3720 C.ar    1  UNL1        0.0585
     16 CL        139.6201  146.4041  161.4698 Cl      1  UNL1       -0.0822
     17 C         140.8687  144.4214  162.5922 C.ar    1  UNL1        0.0228
     18 C         140.8578  143.2231  163.4945 C.ar    1  UNL1        0.0585
     19 CL        142.1172  142.4387  163.7147 Cl      1  UNL1       -0.0822
     20 C         138.8042  140.1234  163.0935 C.3     1  UNL1        0.0934
     21 N         137.3830  140.3435  162.6670 N.3     1  UNL1       -0.3174
     22 H         136.7902  139.6197  163.0731 H       1  UNL1        0.1192
     23 H         137.3229  140.3010  161.6496 H       1  UNL1        0.1192
     24 C         141.0840  143.3368  169.8832 C.3     1  UNL1        0.1257
     25 C         142.3088  142.9663  170.6658 C.3     1  UNL1        0.1586
     26 O         142.1907  142.0736  171.8656 O.3     1  UNL1       -0.3802
     27 H         141.6868  142.5283  172.5585 H       1  UNL1        0.2105
@<TRIPOS>BOND
     1     1     2    1
     2     2     3   ar
     3     3     4   ar
     4     4     5   ar
     5     5     6   ar
     6     6    12    1
     7    12    13   ar
     8    13    14   ar
     9    14    15   ar
    10    15    16    1
    11    15    17   ar
    12    17    18   ar
    13    18    19    1
    14     6     7   ar
    15     7    20    1
    16    20    21    1
    17     5     8    1
    18     8     9    1
    19     9    24    1
    20    24    25    1
    21    25    26    1
    22     9    10   am
    23    10    11    2
    24     7     2   ar
    25    10     4    1
    26    18    12   ar
    27    21    22    1
    28    21    23    1
    29    26    27    1
@<TRIPOS>MOLECULE
*****
 27 29 0 0 0
SMALL
GASTEIGER

@<TRIPOS>ATOM
      1 C         145.4659  139.8830  164.3565 C.3     1  UNL1        0.0518
      2 C         144.0783  140.4178  164.1597 C.ar    1  UNL1        0.0568
      3 N         143.8500  141.5992  163.2641 N.ar    1  UNL1       -0.2456
      4 C         142.4625  142.1341  163.0673 C.ar    1  UNL1        0.1319
      5 C         141.3033  141.4875  163.7660 C.ar    1  UNL1        0.0196
      6 C         141.5316  140.3060  164.6616 C.ar    1  UNL1       -0.0015
      7 C         142.9192  139.7712  164.8584 C.ar    1  UNL1        0.0068
      8 C         140.0578  142.2300  163.3821 C.3     1  UNL1        0.1222
      9 N         140.4473  143.3356  162.4461 N.am    1  UNL1       -0.2681
     10 C         141.9334  143.2763  162.2515 C.2     1  UNL1        0.2668
     11 O         142.7475  144.1975  161.3921 O.2     1  UNL1       -0.2683
     12 C         140.3724  139.6594  165.3603 C.ar    1  UNL1        0.0102
     13 C         139.6723  138.4927  164.7290 C.ar    1  UNL1        0.0017
     14 C         138.5131  137.8460  165.4277 C.ar    1  UNL1        0.0114
     15 C         138.0542  138.3660  166.7577 C.ar    1  UNL1        0.0585
     16 CL        136.8951  137.7193  167.4564 Cl      1  UNL1       -0.0822
     17 C         138.7544  139.5327  167.3890 C.ar    1  UNL1        0.0228
     18 C         139.9135  140.1794  166.6903 C.ar    1  UNL1        0.0585
     19 CL        140.6137  141.3461  167.3216 Cl      1  UNL1       -0.0822
     20 C         143.1475  138.5897  165.7540 C.3     1  UNL1        0.0934
     21 N         143.3041  138.7885  167.2325 N.3     1  UNL1       -0.3174
     22 H         144.1610  139.3103  167.4165 H       1  UNL1        0.1192
     23 H         143.3532  137.8804  167.6943 H       1  UNL1        0.1192
     24 C         139.5144  144.3265  161.8154 C.3     1  UNL1        0.1257
     25 C         139.6242  145.7828  162.1573 C.3     1  UNL1        0.1586
     26 O         140.8562  146.3030  162.8368 O.3     1  UNL1       -0.3802
     27 H         140.9199  145.9221  163.7266 H       1  UNL1        0.2105
@<TRIPOS>BOND
     1     1     2    1
     2     2     3   ar
     3     3     4   ar
     4     4     5   ar
     5     5     6   ar
     6     6    12    1
     7    12    13   ar
     8    13    14   ar
     9    14    15   ar
    10    15    16    1
    11    15    17   ar
    12    17    18   ar
    13    18    19    1
    14     6     7   ar
    15     7    20    1
    16    20    21    1
    17     5     8    1
    18     8     9    1
    19     9    24    1
    20    24    25    1
    21    25    26    1
    22     9    10   am
    23    10    11    2
    24     7     2   ar
    25    10     4    1
    26    18    12   ar
    27    21    22    1
    28    21    23    1
    29    26    27    1
@<TRIPOS>MOLECULE
*****
 27 29 0 0 0
SMALL
GASTEIGER

@<TRIPOS>ATOM
      1 C         137.6794  138.3201  166.6348 C.3     1  UNL1        0.0518
      2 C         138.4699  139.5532  166.3112 C.ar    1  UNL1        0.0568
      3 N         138.3870  140.1592  164.9416 N.ar    1  UNL1       -0.2456
      4 C         139.1774  141.3922  164.6179 C.ar    1  UNL1        0.1319
      5 C         140.0507  142.0193  165.6639 C.ar    1  UNL1        0.0196
      6 C         140.1336  141.4133  167.0336 C.ar    1  UNL1       -0.0015
      7 C         139.3431  140.1802  167.3571 C.ar    1  UNL1        0.0068
      8 C         140.7092  143.2229  165.0574 C.3     1  UNL1        0.1222
      9 N         140.2428  143.3397  163.6366 N.am    1  UNL1       -0.2681
     10 C         139.2961  142.2083  163.3649 C.2     1  UNL1        0.2668
     11 O         138.5918  141.9400  162.0680 O.2     1  UNL1       -0.2683
     12 C         141.0069  142.0404  168.0796 C.ar    1  UNL1        0.0102
     13 C         140.4443  143.0827  168.9999 C.ar    1  UNL1        0.0017
     14 C         141.3175  143.7098  170.0460 C.ar    1  UNL1        0.0114
     15 C         142.7533  143.2944  170.1717 C.ar    1  UNL1        0.0585
     16 CL        143.6265  143.9215  171.2178 Cl      1  UNL1       -0.0822
     17 C         143.3159  142.2521  169.2515 C.ar    1  UNL1        0.0228
     18 C         142.4427  141.6250  168.2054 C.ar    1  UNL1        0.0585
     19 CL        143.0054  140.5826  167.2851 Cl      1  UNL1       -0.0822
     20 C         139.4260  139.5742  168.7269 C.3     1  UNL1        0.0934
     21 N         138.4286  139.9593  169.7790 N.3     1  UNL1       -0.3174
     22 H         138.5512  140.9429  170.0198 H       1  UNL1        0.1192
     23 H         138.5722  139.3854  170.6099 H       1  UNL1        0.1192
     24 C         140.6513  144.4014  162.6590 C.3     1  UNL1        0.1257
     25 C         139.6743  145.4659  162.2561 C.3     1  UNL1        0.1586
     26 O         140.1019  146.9034  162.2244 O.3     1  UNL1       -0.3802
     27 H         140.3034  147.2007  163.1255 H       1  UNL1        0.2105
@<TRIPOS>BOND
     1     1     2    1
     2     2     3   ar
     3     3     4   ar
     4     4     5   ar
     5     5     6   ar
     6     6    12    1
     7    12    13   ar
     8    13    14   ar
     9    14    15   ar
    10    15    16    1
    11    15    17   ar
    12    17    18   ar
    13    18    19    1
    14     6     7   ar
    15     7    20    1
    16    20    21    1
    17     5     8    1
    18     8     9    1
    19     9    24    1
    20    24    25    1
    21    25    26    1
    22     9    10   am
    23    10    11    2
    24     7     2   ar
    25    10     4    1
    26    18    12   ar
    27    21    22    1
    28    21    23    1
    29    26    27    1
@<TRIPOS>MOLECULE
*****
 27 29 0 0 0
SMALL
GASTEIGER

@<TRIPOS>ATOM
      1 C         138.1397  137.6645  162.1999 C.3     1  UNL1        0.0518
      2 C         138.6104  138.9315  162.8506 C.ar    1  UNL1        0.0568
      3 N         138.3698  140.2523  162.1817 N.ar    1  UNL1       -0.2456
      4 C         138.8405  141.5192  162.8324 C.ar    1  UNL1        0.1319
      5 C         139.5517  141.4653  164.1520 C.ar    1  UNL1        0.0196
      6 C         139.7922  140.1445  164.8209 C.ar    1  UNL1       -0.0015
      7 C         139.3215  138.8775  164.1701 C.ar    1  UNL1        0.0068
      8 C         139.8978  142.8696  164.5497 C.3     1  UNL1        0.1222
      9 N         139.4005  143.7914  163.4760 N.am    1  UNL1       -0.2681
     10 C         138.7471  142.9569  162.4146 C.2     1  UNL1        0.2668
     11 O         138.1117  143.4699  161.1563 O.2     1  UNL1       -0.2683
     12 C         140.5034  140.0905  166.1405 C.ar    1  UNL1        0.0102
     13 C         139.7214  140.1730  167.4178 C.ar    1  UNL1        0.0017
     14 C         140.4325  140.1191  168.7375 C.ar    1  UNL1        0.0114
     15 C         141.9256  139.9825  168.7797 C.ar    1  UNL1        0.0585
     16 CL        142.6367  139.9285  170.0993 Cl      1  UNL1       -0.0822
     17 C         142.7077  139.9000  167.5024 C.ar    1  UNL1        0.0228
     18 C         141.9966  139.9540  166.1827 C.ar    1  UNL1        0.0585
     19 CL        142.7786  139.8714  164.9054 Cl      1  UNL1       -0.0822
     20 C         139.5621  137.5566  164.8391 C.3     1  UNL1        0.0934
     21 N         140.8427  136.8146  164.5953 N.3     1  UNL1       -0.3174
     22 H         140.8855  136.5219  163.6191 H       1  UNL1        0.1192
     23 H         140.8798  135.9930  165.1986 H       1  UNL1        0.1192
     24 C         139.5333  145.2855  163.4654 C.3     1  UNL1        0.1257
     25 C         140.1042  145.9792  162.2642 C.3     1  UNL1        0.1586
     26 O         139.2023  146.3996  161.1417 O.3     1  UNL1       -0.3802
     27 H         138.8309  145.6126  160.7133 H       1  UNL1        0.2105
@<TRIPOS>BOND
     1     1     2    1
     2     2     3   ar
     3     3     4   ar
     4     4     5   ar
     5     5     6   ar
     6     6    12    1
     7    12    13   ar
     8    13    14   ar
     9    14    15   ar
    10    15    16    1
    11    15    17   ar
    12    17    18   ar
    13    18    19    1
    14     6     7   ar
    15     7    20    1
    16    20    21    1
    17     5     8    1
    18     8     9    1
    19     9    24    1
    20    24    25    1
    21    25    26    1
    22     9    10   am
    23    10    11    2
    24     7     2   ar
    25    10     4    1
    26    18    12   ar
    27    21    22    1
    28    21    23    1
    29    26    27    1
@<TRIPOS>MOLECULE
*****
 27 29 0 0 0
SMALL
GASTEIGER

@<TRIPOS>ATOM
      1 C         137.5834  138.0650  166.6287 C.3     1  UNL1        0.0518
      2 C         138.5048  139.2012  166.9610 C.ar    1  UNL1        0.0568
      3 N         138.8452  139.4967  168.3917 N.ar    1  UNL1       -0.2456
      4 C         139.7666  140.6328  168.7240 C.ar    1  UNL1        0.1319
      5 C         140.3475  141.4733  167.6258 C.ar    1  UNL1        0.0196
      6 C         140.0070  141.1777  166.1951 C.ar    1  UNL1       -0.0015
      7 C         139.0856  140.0416  165.8628 C.ar    1  UNL1        0.0068
      8 C         141.2199  142.5191  168.2544 C.3     1  UNL1        0.1222
      9 N         141.1781  142.3250  169.7412 N.am    1  UNL1       -0.2681
     10 C         140.2800  141.1592  170.0315 C.2     1  UNL1        0.2668
     11 O         139.9527  140.6153  171.3905 O.2     1  UNL1       -0.2683
     12 C         140.5879  142.0181  165.0968 C.ar    1  UNL1        0.0102
     13 C         141.8911  141.6291  164.4641 C.ar    1  UNL1        0.0017
     14 C         142.4720  142.4694  163.3658 C.ar    1  UNL1        0.0114
     15 C         141.7497  143.6988  162.9002 C.ar    1  UNL1        0.0585
     16 CL        142.3306  144.5392  161.8019 Cl      1  UNL1       -0.0822
     17 C         140.4465  144.0879  163.5329 C.ar    1  UNL1        0.0228
     18 C         139.8656  143.2475  164.6313 C.ar    1  UNL1        0.0585
     19 CL        138.5624  143.6366  165.2640 Cl      1  UNL1       -0.0822
     20 C         138.7451  139.7459  164.4321 C.3     1  UNL1        0.0934
     21 N         137.6223  140.4802  163.7613 N.3     1  UNL1       -0.3174
     22 H         136.7385  140.2267  164.2029 H       1  UNL1        0.1192
     23 H         137.5934  140.2279  162.7734 H       1  UNL1        0.1192
     24 C         141.9066  143.1515  170.7591 C.3     1  UNL1        0.1257
     25 C         143.3944  143.3176  170.6647 C.3     1  UNL1        0.1586
     26 O         144.0734  144.4312  171.4055 O.3     1  UNL1       -0.3802
     27 H         143.7914  145.2833  171.0378 H       1  UNL1        0.2105
@<TRIPOS>BOND
     1     1     2    1
     2     2     3   ar
     3     3     4   ar
     4     4     5   ar
     5     5     6   ar
     6     6    12    1
     7    12    13   ar
     8    13    14   ar
     9    14    15   ar
    10    15    16    1
    11    15    17   ar
    12    17    18   ar
    13    18    19    1
    14     6     7   ar
    15     7    20    1
    16    20    21    1
    17     5     8    1
    18     8     9    1
    19     9    24    1
    20    24    25    1
    21    25    26    1
    22     9    10   am
    23    10    11    2
    24     7     2   ar
    25    10     4    1
    26    18    12   ar
    27    21    22    1
    28    21    23    1
    29    26    27    1
@<TRIPOS>MOLECULE
*****
 27 29 0 0 0
SMALL
GASTEIGER

@<TRIPOS>ATOM
      1 C         138.2968  138.3938  162.0599 C.3     1  UNL1        0.0518
      2 C         138.7668  139.1069  163.2932 C.ar    1  UNL1        0.0568
      3 N         138.2767  138.6731  164.6428 N.ar    1  UNL1       -0.2456
      4 C         138.7466  139.3861  165.8761 C.ar    1  UNL1        0.1319
      5 C         139.7065  140.5328  165.7596 C.ar    1  UNL1        0.0196
      6 C         140.1965  140.9666  164.4100 C.ar    1  UNL1       -0.0015
      7 C         139.7266  140.2536  163.1767 C.ar    1  UNL1        0.0068
      8 C         139.9921  141.0405  167.1419 C.3     1  UNL1        0.1222
      9 N         139.2086  140.2075  168.1126 N.am    1  UNL1       -0.2681
     10 C         138.4389  139.1850  167.3303 C.2     1  UNL1        0.2668
     11 O         137.5223  138.1442  167.9020 O.2     1  UNL1       -0.2683
     12 C         141.1565  142.1133  164.2934 C.ar    1  UNL1        0.0102
     13 C         142.6345  141.8614  164.3368 C.ar    1  UNL1        0.0017
     14 C         143.5945  143.0081  164.2202 C.ar    1  UNL1        0.0114
     15 C         143.0764  144.4066  164.0604 C.ar    1  UNL1        0.0585
     16 CL        144.0363  145.5533  163.9439 Cl      1  UNL1       -0.0822
     17 C         141.5983  144.6585  164.0171 C.ar    1  UNL1        0.0228
     18 C         140.6383  143.5119  164.1336 C.ar    1  UNL1        0.0585
     19 CL        139.1603  143.7638  164.0903 Cl      1  UNL1       -0.0822
     20 C         140.2167  140.6874  161.8269 C.3     1  UNL1        0.0934
     21 N         139.4688  141.7367  161.0591 N.3     1  UNL1       -0.3174
     22 H         138.5498  141.3781  160.7999 H       1  UNL1        0.1192
     23 H         139.9901  141.9774  160.2161 H       1  UNL1        0.1192
     24 C         139.1970  140.3687  169.6039 C.3     1  UNL1        0.1257
     25 C         140.4899  140.4248  170.3624 C.3     1  UNL1        0.1586
     26 O         140.4790  140.4569  171.8620 O.3     1  UNL1       -0.3802
     27 H         140.0772  141.2863  172.1647 H       1  UNL1        0.2105
@<TRIPOS>BOND
     1     1     2    1
     2     2     3   ar
     3     3     4   ar
     4     4     5   ar
     5     5     6   ar
     6     6    12    1
     7    12    13   ar
     8    13    14   ar
     9    14    15   ar
    10    15    16    1
    11    15    17   ar
    12    17    18   ar
    13    18    19    1
    14     6     7   ar
    15     7    20    1
    16    20    21    1
    17     5     8    1
    18     8     9    1
    19     9    24    1
    20    24    25    1
    21    25    26    1
    22     9    10   am
    23    10    11    2
    24     7     2   ar
    25    10     4    1
    26    18    12   ar
    27    21    22    1
    28    21    23    1
    29    26    27    1
@<TRIPOS>MOLECULE
*****
 27 29 0 0 0
SMALL
GASTEIGER

@<TRIPOS>ATOM
      1 C         138.3600  137.6177  163.2872 C.3     1  UNL1        0.0518
      2 C         139.5315  138.3641  163.8536 C.ar    1  UNL1        0.0568
      3 N         140.8620  138.3068  163.1633 N.ar    1  UNL1       -0.2456
      4 C         142.0334  139.0530  163.7296 C.ar    1  UNL1        0.1319
      5 C         141.8744  139.8566  164.9862 C.ar    1  UNL1        0.0196
      6 C         140.5439  139.9139  165.6764 C.ar    1  UNL1       -0.0015
      7 C         139.3724  139.1676  165.1101 C.ar    1  UNL1        0.0068
      8 C         143.1991  140.4833  165.3064 C.3     1  UNL1        0.1222
      9 N         144.1768  140.0670  164.2478 N.am    1  UNL1       -0.2681
     10 C         143.4564  139.1831  163.2732 C.2     1  UNL1        0.2668
     11 O         144.0541  138.5418  162.0561 O.2     1  UNL1       -0.2683
     12 C         140.3848  140.7175  166.9330 C.ar    1  UNL1        0.0102
     13 C         140.3031  140.0247  168.2609 C.ar    1  UNL1        0.0017
     14 C         140.1440  140.8282  169.5176 C.ar    1  UNL1        0.0114
     15 C         140.0666  142.3244  169.4462 C.ar    1  UNL1        0.0585
     16 CL        139.9075  143.1279  170.7029 Cl      1  UNL1       -0.0822
     17 C         140.1483  143.0172  168.1183 C.ar    1  UNL1        0.0228
     18 C         140.3074  142.2138  166.8617 C.ar    1  UNL1        0.0585
     19 CL        140.3892  142.9066  165.5338 Cl      1  UNL1       -0.0822
     20 C         138.0419  139.2249  165.8004 C.3     1  UNL1        0.0934
     21 N         137.6388  138.1308  166.7441 N.3     1  UNL1       -0.3174
     22 H         137.5249  137.2597  166.2259 H       1  UNL1        0.1192
     23 H         136.7568  138.3771  167.1932 H       1  UNL1        0.1192
     24 C         145.6213  140.4648  164.1762 C.3     1  UNL1        0.1257
     25 C         146.0067  141.7860  163.5798 C.3     1  UNL1        0.1586
     26 O         145.7273  142.0660  162.1329 O.3     1  UNL1       -0.3802
     27 H         146.2632  141.4759  161.5801 H       1  UNL1        0.2105
@<TRIPOS>BOND
     1     1     2    1
     2     2     3   ar
     3     3     4   ar
     4     4     5   ar
     5     5     6   ar
     6     6    12    1
     7    12    13   ar
     8    13    14   ar
     9    14    15   ar
    10    15    16    1
    11    15    17   ar
    12    17    18   ar
    13    18    19    1
    14     6     7   ar
    15     7    20    1
    16    20    21    1
    17     5     8    1
    18     8     9    1
    19     9    24    1
    20    24    25    1
    21    25    26    1
    22     9    10   am
    23    10    11    2
    24     7     2   ar
    25    10     4    1
    26    18    12   ar
    27    21    22    1
    28    21    23    1
    29    26    27    1
@<TRIPOS>MOLECULE
*****
 27 29 0 0 0
SMALL
GASTEIGER

@<TRIPOS>ATOM
      1 C         138.2138  145.0717  162.5277 C.3     1  UNL1        0.0518
      2 C         139.2152  144.0917  163.0633 C.ar    1  UNL1        0.0568
      3 N         140.6795  144.4137  163.0152 N.ar    1  UNL1       -0.2456
      4 C         141.6809  143.4338  163.5507 C.ar    1  UNL1        0.1319
      5 C         141.2181  142.1318  164.1345 C.ar    1  UNL1        0.0196
      6 C         139.7539  141.8098  164.1826 C.ar    1  UNL1       -0.0015
      7 C         138.7525  142.7898  163.6470 C.ar    1  UNL1        0.0068
      8 C         142.4290  141.3682  164.5825 C.3     1  UNL1        0.1222
      9 N         143.6401  142.1982  164.2756 N.am    1  UNL1       -0.2681
     10 C         143.1778  143.4748  163.6380 C.2     1  UNL1        0.2668
     11 O         144.0579  144.5956  163.1698 O.2     1  UNL1       -0.2683
     12 C         139.2910  140.5078  164.7664 C.ar    1  UNL1        0.0102
     13 C         138.8596  140.4406  166.2014 C.ar    1  UNL1        0.0017
     14 C         138.3967  139.1387  166.7852 C.ar    1  UNL1        0.0114
     15 C         138.3653  137.9041  165.9339 C.ar    1  UNL1        0.0585
     16 CL        137.9024  136.6022  166.5177 Cl      1  UNL1       -0.0822
     17 C         138.7967  137.9713  164.4989 C.ar    1  UNL1        0.0228
     18 C         139.2596  139.2732  163.9151 C.ar    1  UNL1        0.0585
     19 CL        139.6911  139.3404  162.4801 Cl      1  UNL1       -0.0822
     20 C         137.2881  142.4678  163.6952 C.3     1  UNL1        0.0934
     21 N         136.7277  141.3908  162.8143 N.3     1  UNL1       -0.3174
     22 H         136.8081  141.6742  161.8377 H       1  UNL1        0.1192
     23 H         135.7456  141.2398  163.0447 H       1  UNL1        0.1192
     24 C         145.0637  141.8184  164.5570 C.3     1  UNL1        0.1257
     25 C         145.9845  141.4695  163.4255 C.3     1  UNL1        0.1586
     26 O         145.9183  142.2394  162.1399 O.3     1  UNL1       -0.3802
     27 H         145.0641  142.0776  161.7097 H       1  UNL1        0.2105
@<TRIPOS>BOND
     1     1     2    1
     2     2     3   ar
     3     3     4   ar
     4     4     5   ar
     5     5     6   ar
     6     6    12    1
     7    12    13   ar
     8    13    14   ar
     9    14    15   ar
    10    15    16    1
    11    15    17   ar
    12    17    18   ar
    13    18    19    1
    14     6     7   ar
    15     7    20    1
    16    20    21    1
    17     5     8    1
    18     8     9    1
    19     9    24    1
    20    24    25    1
    21    25    26    1
    22     9    10   am
    23    10    11    2
    24     7     2   ar
    25    10     4    1
    26    18    12   ar
    27    21    22    1
    28    21    23    1
    29    26    27    1
