@<TRIPOS>MOLECULE
*****
 37 40 0 0 0
SMALL
GASTEIGER

@<TRIPOS>ATOM
      1 N         142.3059  137.2796  157.3115 N.am    1  UNL1       -0.3018
      2 C         143.2027  138.0664  156.4023 C.2     1  UNL1        0.2426
      3 O         144.0220  139.1967  156.9511 O.2     1  UNL1       -0.2733
      4 H         141.7682  136.5378  156.9512 H       1  UNL1        0.1495
      5 N         142.1188  138.1087  160.8316 N.3     1  UNL1       -0.2711
      6 C         141.2959  138.4335  159.6202 C.3     1  UNL1        0.0933
      7 C         142.2284  137.6231  158.7696 C.3     1  UNL1        0.1035
      8 C         143.0513  137.2982  159.9809 C.3     1  UNL1        0.0933
      9 C         141.8862  139.1391  165.2059 C.3     1  UNL1        0.0240
     10 C         142.5536  140.0808  164.2480 C.3     1  UNL1        0.0058
     11 C         142.6312  139.7374  162.7899 C.3     1  UNL1        0.0163
     12 C         142.0413  138.4522  162.2897 C.3     1  UNL1        0.0576
     13 C         141.3738  137.5104  163.2476 C.3     1  UNL1        0.0163
     14 C         141.2963  137.8539  164.7057 C.3     1  UNL1        0.0058
     15 C         141.6537  140.1694  169.5802 C.ar    1  UNL1        0.2250
     16 C         140.5079  140.4991  168.6700 C.ar    1  UNL1        0.0574
     17 C         140.5854  140.1557  167.2119 C.ar    1  UNL1        0.0020
     18 C         141.8087  139.4825  166.6640 C.ar    1  UNL1       -0.0031
     19 C         142.9545  139.1527  167.5741 C.ar    1  UNL1        0.0977
     20 N         142.8770  139.4962  169.0322 N.ar    1  UNL1       -0.2105
     21 C         140.8670  141.7590  171.4786 C.3     1  UNL1        0.2542
     22 O         141.5762  140.5128  171.0383 O.3     1  UNL1       -0.4561
     23 C         143.2802  137.7230  154.9442 C.3     1  UNL1        0.1759
     24 N         143.4939  136.3004  154.5190 N.am    1  UNL1       -0.2931
     25 C         142.3511  135.3292  154.5480 C.2     1  UNL1        0.2462
     26 O         140.9946  135.7806  155.0021 O.2     1  UNL1       -0.2701
     27 H         144.3842  136.0042  154.2210 H       1  UNL1        0.1502
     28 C         142.5648  133.9067  154.1230 C.ar    1  UNL1        0.0533
     29 C         142.0032  133.4210  152.8196 C.ar    1  UNL1        0.0045
     30 C         142.2169  131.9984  152.3945 C.ar    1  UNL1        0.0001
     31 C         142.9922  131.0616  153.2727 C.ar    1  UNL1        0.0039
     32 C         143.5538  131.5473  154.5760 C.ar    1  UNL1        0.0716
     33 C         143.3401  132.9699  155.0012 C.ar    1  UNL1        0.0084
     34 C         144.3291  130.6105  155.4542 C.3     1  UNL1        0.4186
     35 F         145.1043  129.6736  156.3325 F       1  UNL1       -0.1659
     36 F         145.1933  131.7499  155.9067 F       1  UNL1       -0.1659
     37 F         143.4648  129.4710  155.0018 F       1  UNL1       -0.1659
@<TRIPOS>BOND
     1    21    22    1
     2    22    15    1
     3    15    16   ar
     4    16    17   ar
     5    17    18   ar
     6     9    18    1
     7     9    10    1
     8    10    11    1
     9    11    12    1
    10    12     5    1
    11     5     6    1
    12     6     7    1
    13     7     1    1
    14     1     2   am
    15     2     3    2
    16     2    23    1
    17    23    24    1
    18    24    25   am
    19    25    26    2
    20    25    28    1
    21    28    29   ar
    22    29    30   ar
    23    30    31   ar
    24    31    32   ar
    25    32    34    1
    26    34    35    1
    27    34    36    1
    28    34    37    1
    29    32    33   ar
    30     7     8    1
    31    12    13    1
    32    13    14    1
    33    18    19   ar
    34    19    20   ar
    35    20    15   ar
    36    14     9    1
    37     8     5    1
    38    33    28   ar
    39     1     4    1
    40    24    27    1
@<TRIPOS>MOLECULE
*****
 37 40 0 0 0
SMALL
GASTEIGER

@<TRIPOS>ATOM
      1 N         142.6484  137.3467  157.3179 N.am    1  UNL1       -0.3018
      2 C         143.4945  138.2585  156.4797 C.2     1  UNL1        0.2426
      3 O         144.0750  139.5049  157.0794 O.2     1  UNL1       -0.2733
      4 H         142.2674  136.5287  156.9243 H       1  UNL1        0.1495
      5 N         142.0070  138.1542  160.7892 N.3     1  UNL1       -0.2711
      6 C         143.0596  137.3741  160.0587 C.3     1  UNL1        0.0933
      7 C         142.3827  137.6812  158.7557 C.3     1  UNL1        0.1035
      8 C         141.3302  138.4613  159.4862 C.3     1  UNL1        0.0933
      9 C         141.2100  139.1577  165.1029 C.3     1  UNL1        0.0240
     10 C         140.8416  137.8061  164.5669 C.3     1  UNL1        0.0058
     11 C         141.1073  137.4716  163.1290 C.3     1  UNL1        0.0163
     12 C         141.7413  138.4887  162.2271 C.3     1  UNL1        0.0576
     13 C         142.1097  139.8404  162.7631 C.3     1  UNL1        0.0163
     14 C         141.8440  140.1749  164.2010 C.3     1  UNL1        0.0058
     15 C         140.4130  140.1612  169.4166 C.ar    1  UNL1        0.2250
     16 C         141.8234  140.0930  168.9106 C.ar    1  UNL1        0.0574
     17 C         142.0891  139.7585  167.4727 C.ar    1  UNL1        0.0020
     18 C         140.9443  139.4922  166.5408 C.ar    1  UNL1       -0.0031
     19 C         139.5339  139.5605  167.0467 C.ar    1  UNL1        0.0977
     20 N         139.2682  139.8950  168.4846 N.ar    1  UNL1       -0.2105
     21 C         140.7312  141.7399  171.4553 C.3     1  UNL1        0.2542
     22 O         140.1473  140.4957  170.8544 O.3     1  UNL1       -0.4561
     23 C         143.7602  137.9240  155.0418 C.3     1  UNL1        0.1759
     24 N         142.9459  136.8682  154.3546 N.am    1  UNL1       -0.2931
     25 C         143.1084  135.4273  154.7388 C.2     1  UNL1        0.2462
     26 O         144.0851  135.0424  155.8102 O.2     1  UNL1       -0.2701
     27 H         142.3049  137.1208  153.6514 H       1  UNL1        0.1502
     28 C         142.2942  134.3715  154.0516 C.ar    1  UNL1        0.0533
     29 C         141.7416  134.6246  152.6802 C.ar    1  UNL1        0.0045
     30 C         140.9274  133.5687  151.9931 C.ar    1  UNL1        0.0001
     31 C         140.6657  132.2598  152.6773 C.ar    1  UNL1        0.0039
     32 C         141.2182  132.0067  154.0486 C.ar    1  UNL1        0.0716
     33 C         142.0325  133.0625  154.7358 C.ar    1  UNL1        0.0084
     34 C         140.9565  130.6977  154.7328 C.3     1  UNL1        0.4186
     35 F         140.6948  129.3887  155.4170 F       1  UNL1       -0.1659
     36 F         139.4804  130.9055  154.5657 F       1  UNL1       -0.1659
     37 F         142.4326  130.4899  154.8999 F       1  UNL1       -0.1659
@<TRIPOS>BOND
     1    21    22    1
     2    22    15    1
     3    15    16   ar
     4    16    17   ar
     5    17    18   ar
     6     9    18    1
     7     9    10    1
     8    10    11    1
     9    11    12    1
    10    12     5    1
    11     5     6    1
    12     6     7    1
    13     7     1    1
    14     1     2   am
    15     2     3    2
    16     2    23    1
    17    23    24    1
    18    24    25   am
    19    25    26    2
    20    25    28    1
    21    28    29   ar
    22    29    30   ar
    23    30    31   ar
    24    31    32   ar
    25    32    34    1
    26    34    35    1
    27    34    36    1
    28    34    37    1
    29    32    33   ar
    30     7     8    1
    31    12    13    1
    32    13    14    1
    33    18    19   ar
    34    19    20   ar
    35    20    15   ar
    36    14     9    1
    37     8     5    1
    38    33    28   ar
    39     1     4    1
    40    24    27    1
@<TRIPOS>MOLECULE
*****
 37 40 0 0 0
SMALL
GASTEIGER

@<TRIPOS>ATOM
      1 N         140.9124  142.6435  160.3354 N.am    1  UNL1       -0.3018
      2 C         140.8268  143.7852  161.3044 C.2     1  UNL1        0.2426
      3 O         141.9434  144.7834  161.3879 O.2     1  UNL1       -0.2733
      4 H         140.1796  141.9883  160.2806 H       1  UNL1        0.1495
      5 N         143.8147  142.2968  158.1976 N.3     1  UNL1       -0.2711
      6 C         142.5174  143.0449  158.1117 C.3     1  UNL1        0.0933
      7 C         142.1146  142.4999  159.4499 C.3     1  UNL1        0.1035
      8 C         143.4118  141.7517  159.5358 C.3     1  UNL1        0.0933
      9 C         147.4213  141.8659  155.5410 C.3     1  UNL1        0.0240
     10 C         146.1439  141.1615  155.1916 C.3     1  UNL1        0.0058
     11 C         144.9418  141.3051  156.0771 C.3     1  UNL1        0.0163
     12 C         145.0169  142.1531  157.3121 C.3     1  UNL1        0.0576
     13 C         146.2942  142.8576  157.6615 C.3     1  UNL1        0.0163
     14 C         147.4964  142.7140  156.7760 C.3     1  UNL1        0.0058
     15 C         151.0278  141.4351  152.8845 C.ar    1  UNL1        0.2250
     16 C         151.1971  141.5070  154.3732 C.ar    1  UNL1        0.0574
     17 C         149.9950  141.6506  155.2587 C.ar    1  UNL1        0.0020
     18 C         148.6235  141.7223  154.6555 C.ar    1  UNL1       -0.0031
     19 C         148.4542  141.6504  153.1669 C.ar    1  UNL1        0.0977
     20 N         149.6563  141.5067  152.2814 N.ar    1  UNL1       -0.2105
     21 C         153.5044  142.0038  152.3431 C.3     1  UNL1        0.2542
     22 O         152.2300  141.2914  151.9990 O.3     1  UNL1       -0.4561
     23 C         139.6246  143.9288  162.1899 C.3     1  UNL1        0.1759
     24 N         139.4200  142.9829  163.3360 N.am    1  UNL1       -0.2931
     25 C         140.2422  143.1259  164.5824 C.2     1  UNL1        0.2462
     26 O         141.2691  144.2148  164.6827 O.2     1  UNL1       -0.2701
     27 H         138.7461  142.2683  163.2702 H       1  UNL1        0.1502
     28 C         140.0377  142.1801  165.7285 C.ar    1  UNL1        0.0533
     29 C         140.5438  142.5368  167.0948 C.ar    1  UNL1        0.0045
     30 C         140.3393  141.5909  168.2409 C.ar    1  UNL1        0.0001
     31 C         139.6286  140.2884  168.0207 C.ar    1  UNL1        0.0039
     32 C         139.1225  139.9318  166.6545 C.ar    1  UNL1        0.0716
     33 C         139.3271  140.8776  165.5083 C.ar    1  UNL1        0.0084
     34 C         138.4119  138.6293  166.4344 C.3     1  UNL1        0.4186
     35 F         137.7012  137.3268  166.2142 F       1  UNL1       -0.1659
     36 F         137.6258  138.8453  167.6935 F       1  UNL1       -0.1659
     37 F         139.1979  138.4132  165.1752 F       1  UNL1       -0.1659
@<TRIPOS>BOND
     1    21    22    1
     2    22    15    1
     3    15    16   ar
     4    16    17   ar
     5    17    18   ar
     6     9    18    1
     7     9    10    1
     8    10    11    1
     9    11    12    1
    10    12     5    1
    11     5     6    1
    12     6     7    1
    13     7     1    1
    14     1     2   am
    15     2     3    2
    16     2    23    1
    17    23    24    1
    18    24    25   am
    19    25    26    2
    20    25    28    1
    21    28    29   ar
    22    29    30   ar
    23    30    31   ar
    24    31    32   ar
    25    32    34    1
    26    34    35    1
    27    34    36    1
    28    34    37    1
    29    32    33   ar
    30     7     8    1
    31    12    13    1
    32    13    14    1
    33    18    19   ar
    34    19    20   ar
    35    20    15   ar
    36    14     9    1
    37     8     5    1
    38    33    28   ar
    39     1     4    1
    40    24    27    1
@<TRIPOS>MOLECULE
*****
 37 40 0 0 0
SMALL
GASTEIGER

@<TRIPOS>ATOM
      1 N         140.6492  142.0611  160.6638 N.am    1  UNL1       -0.3018
      2 C         140.3727  143.2934  161.4731 C.2     1  UNL1        0.2426
      3 O         141.2958  144.4724  161.3834 O.2     1  UNL1       -0.2733
      4 H         140.0434  141.2874  160.7227 H       1  UNL1        0.1495
      5 N         143.5453  141.9323  158.4936 N.3     1  UNL1       -0.2711
      6 C         142.1181  142.3653  158.3332 C.3     1  UNL1        0.0933
      7 C         141.8488  142.0078  159.7649 C.3     1  UNL1        0.1035
      8 C         143.2760  141.5747  159.9253 C.3     1  UNL1        0.0933
      9 C         147.1441  141.7721  155.7968 C.3     1  UNL1        0.0240
     10 C         145.9575  140.8984  155.5166 C.3     1  UNL1        0.0058
     11 C         144.7579  140.9518  156.4156 C.3     1  UNL1        0.0163
     12 C         144.7449  141.8789  157.5947 C.3     1  UNL1        0.0576
     13 C         145.9316  142.7526  157.8748 C.3     1  UNL1        0.0163
     14 C         147.1312  142.6992  156.9759 C.3     1  UNL1        0.0058
     15 C         150.7429  141.6119  153.0999 C.ar    1  UNL1        0.2250
     16 C         150.9217  141.6251  154.5891 C.ar    1  UNL1        0.0574
     17 C         149.7221  141.6785  155.4881 C.ar    1  UNL1        0.0020
     18 C         148.3437  141.7187  154.8978 C.ar    1  UNL1       -0.0031
     19 C         148.1650  141.7055  153.4086 C.ar    1  UNL1        0.0977
     20 N         149.3646  141.6522  152.5096 N.ar    1  UNL1       -0.2105
     21 C         152.9209  140.4280  152.3222 C.3     1  UNL1        0.2542
     22 O         151.9425  141.5586  152.2010 O.3     1  UNL1       -0.4561
     23 C         139.1731  143.3468  162.3720 C.3     1  UNL1        0.1759
     24 N         139.3100  143.0060  163.8264 N.am    1  UNL1       -0.2931
     25 C         139.4347  141.5732  164.2525 C.2     1  UNL1        0.2462
     26 O         139.4224  140.4812  163.2241 O.2     1  UNL1       -0.2701
     27 H         139.3180  143.7227  164.5013 H       1  UNL1        0.1502
     28 C         139.5716  141.2324  165.7068 C.ar    1  UNL1        0.0533
     29 C         138.9862  139.9569  166.2365 C.ar    1  UNL1        0.0045
     30 C         139.1231  139.6161  167.6908 C.ar    1  UNL1        0.0001
     31 C         139.8453  140.5506  168.6154 C.ar    1  UNL1        0.0039
     32 C         140.4307  141.8260  168.0857 C.ar    1  UNL1        0.0716
     33 C         140.2938  142.1669  166.6314 C.ar    1  UNL1        0.0084
     34 C         141.1530  142.7606  169.0104 C.3     1  UNL1        0.4186
     35 F         141.8753  143.6952  169.9350 F       1  UNL1       -0.1659
     36 F         142.2081  141.7192  169.2388 F       1  UNL1       -0.1659
     37 F         140.0979  143.8020  168.7819 F       1  UNL1       -0.1659
@<TRIPOS>BOND
     1    21    22    1
     2    22    15    1
     3    15    16   ar
     4    16    17   ar
     5    17    18   ar
     6     9    18    1
     7     9    10    1
     8    10    11    1
     9    11    12    1
    10    12     5    1
    11     5     6    1
    12     6     7    1
    13     7     1    1
    14     1     2   am
    15     2     3    2
    16     2    23    1
    17    23    24    1
    18    24    25   am
    19    25    26    2
    20    25    28    1
    21    28    29   ar
    22    29    30   ar
    23    30    31   ar
    24    31    32   ar
    25    32    34    1
    26    34    35    1
    27    34    36    1
    28    34    37    1
    29    32    33   ar
    30     7     8    1
    31    12    13    1
    32    13    14    1
    33    18    19   ar
    34    19    20   ar
    35    20    15   ar
    36    14     9    1
    37     8     5    1
    38    33    28   ar
    39     1     4    1
    40    24    27    1
@<TRIPOS>MOLECULE
*****
 37 40 0 0 0
SMALL
GASTEIGER

@<TRIPOS>ATOM
      1 N         141.6584  137.8942  157.1632 N.am    1  UNL1       -0.3018
      2 C         142.8886  138.3358  156.4272 C.2     1  UNL1        0.2426
      3 O         143.9050  139.1983  157.1150 O.2     1  UNL1       -0.2733
      4 H         140.9913  137.3281  156.7118 H       1  UNL1        0.1495
      5 N         141.1423  138.9104  160.6004 N.3     1  UNL1       -0.2711
      6 C         142.1281  138.0298  159.8913 C.3     1  UNL1        0.0933
      7 C         141.4446  138.3151  158.5869 C.3     1  UNL1        0.1035
      8 C         140.4588  139.1957  159.2960 C.3     1  UNL1        0.0933
      9 C         140.5009  140.1732  164.8717 C.3     1  UNL1        0.0240
     10 C         141.3003  141.0406  163.9452 C.3     1  UNL1        0.0058
     11 C         141.5141  140.6197  162.5214 C.3     1  UNL1        0.0163
     12 C         140.9285  139.3313  162.0242 C.3     1  UNL1        0.0576
     13 C         140.1291  138.4639  162.9508 C.3     1  UNL1        0.0163
     14 C         139.9153  138.8849  164.3745 C.3     1  UNL1        0.0058
     15 C         139.8595  141.4360  169.1430 C.ar    1  UNL1        0.2250
     16 C         139.3286  140.1178  168.6628 C.ar    1  UNL1        0.0574
     17 C         139.5424  139.6969  167.2391 C.ar    1  UNL1        0.0020
     18 C         140.2871  140.5941  166.2955 C.ar    1  UNL1       -0.0031
     19 C         140.8180  141.9122  166.7757 C.ar    1  UNL1        0.0977
     20 N         140.6043  142.3331  168.1995 N.ar    1  UNL1       -0.2105
     21 C         140.8194  142.0080  171.4885 C.3     1  UNL1        0.2542
     22 O         139.6457  141.8569  170.5668 O.3     1  UNL1       -0.4561
     23 C         143.1024  137.9149  155.0034 C.3     1  UNL1        0.1759
     24 N         143.3888  136.4781  154.6810 N.am    1  UNL1       -0.2931
     25 C         142.2746  135.4739  154.6766 C.2     1  UNL1        0.2462
     26 O         140.8739  135.9064  154.9945 O.2     1  UNL1       -0.2701
     27 H         144.3081  136.1943  154.4724 H       1  UNL1        0.1502
     28 C         142.5610  134.0373  154.3542 C.ar    1  UNL1        0.0533
     29 C         142.1741  133.4770  153.0176 C.ar    1  UNL1        0.0045
     30 C         142.4605  132.0403  152.6952 C.ar    1  UNL1        0.0001
     31 C         143.1338  131.1639  153.7094 C.ar    1  UNL1        0.0039
     32 C         143.5207  131.7241  155.0460 C.ar    1  UNL1        0.0716
     33 C         143.2343  133.1609  155.3684 C.ar    1  UNL1        0.0084
     34 C         144.1940  130.8477  156.0602 C.3     1  UNL1        0.4186
     35 F         144.8672  129.9713  157.0744 F       1  UNL1       -0.1659
     36 F         143.3121  131.4129  157.1340 F       1  UNL1       -0.1659
     37 F         145.0758  130.2826  154.9864 F       1  UNL1       -0.1659
@<TRIPOS>BOND
     1    21    22    1
     2    22    15    1
     3    15    16   ar
     4    16    17   ar
     5    17    18   ar
     6     9    18    1
     7     9    10    1
     8    10    11    1
     9    11    12    1
    10    12     5    1
    11     5     6    1
    12     6     7    1
    13     7     1    1
    14     1     2   am
    15     2     3    2
    16     2    23    1
    17    23    24    1
    18    24    25   am
    19    25    26    2
    20    25    28    1
    21    28    29   ar
    22    29    30   ar
    23    30    31   ar
    24    31    32   ar
    25    32    34    1
    26    34    35    1
    27    34    36    1
    28    34    37    1
    29    32    33   ar
    30     7     8    1
    31    12    13    1
    32    13    14    1
    33    18    19   ar
    34    19    20   ar
    35    20    15   ar
    36    14     9    1
    37     8     5    1
    38    33    28   ar
    39     1     4    1
    40    24    27    1
@<TRIPOS>MOLECULE
*****
 37 40 0 0 0
SMALL
GASTEIGER

@<TRIPOS>ATOM
      1 N         143.4289  138.3862  157.0162 N.am    1  UNL1       -0.3018
      2 C         142.2250  138.5121  156.1304 C.2     1  UNL1        0.2426
      3 O         140.9171  138.9717  156.7034 O.2     1  UNL1       -0.2733
      4 H         144.2873  138.0845  156.6401 H       1  UNL1        0.1495
      5 N         143.1782  139.1920  160.5378 N.3     1  UNL1       -0.2711
      6 C         143.6877  139.9048  159.3202 C.3     1  UNL1        0.0933
      7 C         143.3251  138.7200  158.4749 C.3     1  UNL1        0.1035
      8 C         142.8156  138.0071  159.6923 C.3     1  UNL1        0.0933
      9 C         142.8667  140.1933  164.9139 C.3     1  UNL1        0.0240
     10 C         141.7154  140.4780  163.9955 C.3     1  UNL1        0.0058
     11 C         141.8192  140.1442  162.5368 C.3     1  UNL1        0.0163
     12 C         143.0744  139.5257  161.9965 C.3     1  UNL1        0.0576
     13 C         144.2257  139.2410  162.9148 C.3     1  UNL1        0.0163
     14 C         144.1218  139.5748  164.3735 C.3     1  UNL1        0.0058
     15 C         142.5552  141.1946  169.2900 C.ar    1  UNL1        0.2250
     16 C         142.4330  139.7702  168.8360 C.ar    1  UNL1        0.0574
     17 C         142.5368  139.4364  167.3773 C.ar    1  UNL1        0.0020
     18 C         142.7629  140.5270  166.3726 C.ar    1  UNL1       -0.0031
     19 C         142.8850  141.9514  166.8266 C.ar    1  UNL1        0.0977
     20 N         142.7812  142.2852  168.2853 N.ar    1  UNL1       -0.2105
     21 C         141.1035  141.6811  171.3890 C.3     1  UNL1        0.2542
     22 O         142.4513  141.5283  170.7487 O.3     1  UNL1       -0.4561
     23 C         142.3288  138.1783  154.6717 C.3     1  UNL1        0.1759
     24 N         142.7181  136.7939  154.2449 N.am    1  UNL1       -0.2931
     25 C         141.7965  135.6405  154.5101 C.2     1  UNL1        0.2462
     26 O         140.4858  135.8714  155.2020 O.2     1  UNL1       -0.2701
     27 H         143.5783  136.6424  153.7909 H       1  UNL1        0.1502
     28 C         142.1857  134.2561  154.0833 C.ar    1  UNL1        0.0533
     29 C         141.7778  133.7449  152.7334 C.ar    1  UNL1        0.0045
     30 C         142.1670  132.3606  152.3067 C.ar    1  UNL1        0.0001
     31 C         142.9641  131.4874  153.2298 C.ar    1  UNL1        0.0039
     32 C         143.3720  131.9986  154.5797 C.ar    1  UNL1        0.0716
     33 C         142.9828  133.3830  155.0065 C.ar    1  UNL1        0.0084
     34 C         144.1691  131.1254  155.5029 C.3     1  UNL1        0.4186
     35 F         144.9662  130.2523  156.4261 F       1  UNL1       -0.1659
     36 F         143.3037  129.9544  155.1426 F       1  UNL1       -0.1659
     37 F         145.0345  132.2964  155.8633 F       1  UNL1       -0.1659
@<TRIPOS>BOND
     1    21    22    1
     2    22    15    1
     3    15    16   ar
     4    16    17   ar
     5    17    18   ar
     6     9    18    1
     7     9    10    1
     8    10    11    1
     9    11    12    1
    10    12     5    1
    11     5     6    1
    12     6     7    1
    13     7     1    1
    14     1     2   am
    15     2     3    2
    16     2    23    1
    17    23    24    1
    18    24    25   am
    19    25    26    2
    20    25    28    1
    21    28    29   ar
    22    29    30   ar
    23    30    31   ar
    24    31    32   ar
    25    32    34    1
    26    34    35    1
    27    34    36    1
    28    34    37    1
    29    32    33   ar
    30     7     8    1
    31    12    13    1
    32    13    14    1
    33    18    19   ar
    34    19    20   ar
    35    20    15   ar
    36    14     9    1
    37     8     5    1
    38    33    28   ar
    39     1     4    1
    40    24    27    1
@<TRIPOS>MOLECULE
*****
 37 40 0 0 0
SMALL
GASTEIGER

@<TRIPOS>ATOM
      1 N         142.2709  141.9652  163.2559 N.am    1  UNL1       -0.3018
      2 C         143.5804  142.6947  163.2015 C.2     1  UNL1        0.2426
      3 O         143.9869  143.4136  161.9492 O.2     1  UNL1       -0.2733
      4 H         142.0041  141.4934  164.0778 H       1  UNL1        0.1495
      5 N         140.0909  141.9393  160.3645 N.3     1  UNL1       -0.2711
      6 C         140.0257  142.5418  161.7367 C.3     1  UNL1        0.0933
      7 C         141.3679  141.9545  162.0583 C.3     1  UNL1        0.1035
      8 C         141.4332  141.3520  160.6861 C.3     1  UNL1        0.0933
      9 C         137.3819  141.9072  156.7714 C.3     1  UNL1        0.0240
     10 C         137.3848  140.7444  157.7189 C.3     1  UNL1        0.0058
     11 C         138.2878  140.7551  158.9166 C.3     1  UNL1        0.0163
     12 C         139.1879  141.9286  159.1668 C.3     1  UNL1        0.0576
     13 C         139.1849  143.0915  158.2193 C.3     1  UNL1        0.0163
     14 C         138.2819  143.0808  157.0216 C.3     1  UNL1        0.0058
     15 C         134.6729  141.8751  153.1783 C.ar    1  UNL1        0.2250
     16 C         134.4143  140.9384  154.3210 C.ar    1  UNL1        0.0574
     17 C         135.3173  140.9491  155.5186 C.ar    1  UNL1        0.0020
     18 C         136.4789  141.8965  155.5737 C.ar    1  UNL1       -0.0031
     19 C         136.7374  142.8333  154.4311 C.ar    1  UNL1        0.0977
     20 N         135.8344  142.8226  153.2334 N.ar    1  UNL1       -0.2105
     21 C         132.4083  142.4886  152.0623 C.3     1  UNL1        0.2542
     22 O         133.7698  141.8644  151.9806 O.3     1  UNL1       -0.4561
     23 C         144.4834  142.7054  164.3992 C.3     1  UNL1        0.1759
     24 N         143.9044  142.8663  165.7736 N.am    1  UNL1       -0.2931
     25 C         143.2564  141.6981  166.4558 C.2     1  UNL1        0.2462
     26 O         143.1873  140.3691  165.7637 O.2     1  UNL1       -0.2701
     27 H         143.9497  143.7386  166.2278 H       1  UNL1        0.1502
     28 C         142.6774  141.8589  167.8302 C.ar    1  UNL1        0.0533
     29 C         143.4620  142.5637  168.8969 C.ar    1  UNL1        0.0045
     30 C         142.8830  142.7245  170.2712 C.ar    1  UNL1        0.0001
     31 C         141.5194  142.1806  170.5789 C.ar    1  UNL1        0.0039
     32 C         140.7347  141.4759  169.5123 C.ar    1  UNL1        0.0716
     33 C         141.3137  141.3151  168.1379 C.ar    1  UNL1        0.0084
     34 C         139.3711  140.9321  169.8201 C.3     1  UNL1        0.4186
     35 F         138.0074  140.3882  170.1278 F       1  UNL1       -0.1659
     36 F         139.0274  142.2018  170.5409 F       1  UNL1       -0.1659
     37 F         139.7148  139.6623  169.0992 F       1  UNL1       -0.1659
@<TRIPOS>BOND
     1    21    22    1
     2    22    15    1
     3    15    16   ar
     4    16    17   ar
     5    17    18   ar
     6     9    18    1
     7     9    10    1
     8    10    11    1
     9    11    12    1
    10    12     5    1
    11     5     6    1
    12     6     7    1
    13     7     1    1
    14     1     2   am
    15     2     3    2
    16     2    23    1
    17    23    24    1
    18    24    25   am
    19    25    26    2
    20    25    28    1
    21    28    29   ar
    22    29    30   ar
    23    30    31   ar
    24    31    32   ar
    25    32    34    1
    26    34    35    1
    27    34    36    1
    28    34    37    1
    29    32    33   ar
    30     7     8    1
    31    12    13    1
    32    13    14    1
    33    18    19   ar
    34    19    20   ar
    35    20    15   ar
    36    14     9    1
    37     8     5    1
    38    33    28   ar
    39     1     4    1
    40    24    27    1
@<TRIPOS>MOLECULE
*****
 37 40 0 0 0
SMALL
GASTEIGER

@<TRIPOS>ATOM
      1 N         142.9462  137.3262  157.8055 N.am    1  UNL1       -0.3018
      2 C         141.7742  137.1218  156.8921 C.2     1  UNL1        0.2426
      3 O         140.3963  137.5079  157.3421 O.2     1  UNL1       -0.2733
      4 H         143.8506  137.0729  157.5102 H       1  UNL1        0.1495
      5 N         142.4495  138.7516  161.0973 N.3     1  UNL1       -0.2711
      6 C         142.0824  139.1555  159.7000 C.3     1  UNL1        0.0933
      7 C         142.7405  137.9166  159.1690 C.3     1  UNL1        0.1035
      8 C         143.1076  137.5126  160.5661 C.3     1  UNL1        0.0933
      9 C         141.8322  140.5228  165.1877 C.3     1  UNL1        0.0240
     10 C         142.9995  140.9559  164.3512 C.3     1  UNL1        0.0058
     11 C         143.2053  140.3655  162.9877 C.3     1  UNL1        0.0163
     12 C         142.2437  139.3420  162.4607 C.3     1  UNL1        0.0576
     13 C         141.0764  138.9089  163.2972 C.3     1  UNL1        0.0163
     14 C         140.8706  139.4993  164.6607 C.3     1  UNL1        0.0058
     15 C         141.2149  142.2940  169.2782 C.ar    1  UNL1        0.2250
     16 C         142.5508  142.4074  168.6056 C.ar    1  UNL1        0.0574
     17 C         142.7566  141.8170  167.2421 C.ar    1  UNL1        0.0020
     18 C         141.6264  141.1132  166.5512 C.ar    1  UNL1       -0.0031
     19 C         140.2905  140.9998  167.2238 C.ar    1  UNL1        0.0977
     20 N         140.0848  141.5902  168.5873 N.ar    1  UNL1       -0.2105
     21 C         139.6270  143.2375  171.1052 C.3     1  UNL1        0.2542
     22 O         141.0091  142.8844  170.6416 O.3     1  UNL1       -0.4561
     23 C         141.9799  136.5314  155.5286 C.3     1  UNL1        0.1759
     24 N         141.6989  135.0773  155.2908 N.am    1  UNL1       -0.2931
     25 C         142.4684  134.0320  156.0426 C.2     1  UNL1        0.2462
     26 O         143.5188  134.4408  157.0323 O.2     1  UNL1       -0.2701
     27 H         141.0095  134.8089  154.6412 H       1  UNL1        0.1502
     28 C         142.1874  132.5779  155.8049 C.ar    1  UNL1        0.0533
     29 C         141.0597  132.1694  154.9039 C.ar    1  UNL1        0.0045
     30 C         140.7787  130.7153  154.6662 C.ar    1  UNL1        0.0001
     31 C         141.6254  129.6696  155.3292 C.ar    1  UNL1        0.0039
     32 C         142.7530  130.0780  156.2301 C.ar    1  UNL1        0.0716
     33 C         143.0340  131.5322  156.4679 C.ar    1  UNL1        0.0084
     34 C         143.5997  129.0323  156.8932 C.3     1  UNL1        0.4186
     35 F         144.4463  127.9866  157.5563 F       1  UNL1       -0.1659
     36 F         144.7438  130.0001  156.9587 F       1  UNL1       -0.1659
     37 F         142.4555  128.0644  156.8277 F       1  UNL1       -0.1659
@<TRIPOS>BOND
     1    21    22    1
     2    22    15    1
     3    15    16   ar
     4    16    17   ar
     5    17    18   ar
     6     9    18    1
     7     9    10    1
     8    10    11    1
     9    11    12    1
    10    12     5    1
    11     5     6    1
    12     6     7    1
    13     7     1    1
    14     1     2   am
    15     2     3    2
    16     2    23    1
    17    23    24    1
    18    24    25   am
    19    25    26    2
    20    25    28    1
    21    28    29   ar
    22    29    30   ar
    23    30    31   ar
    24    31    32   ar
    25    32    34    1
    26    34    35    1
    27    34    36    1
    28    34    37    1
    29    32    33   ar
    30     7     8    1
    31    12    13    1
    32    13    14    1
    33    18    19   ar
    34    19    20   ar
    35    20    15   ar
    36    14     9    1
    37     8     5    1
    38    33    28   ar
    39     1     4    1
    40    24    27    1
@<TRIPOS>MOLECULE
*****
 37 40 0 0 0
SMALL
GASTEIGER

@<TRIPOS>ATOM
      1 N         142.7959  138.3864  156.7702 N.am    1  UNL1       -0.3018
      2 C         143.0072  136.9795  156.2948 C.2     1  UNL1        0.2426
      3 O         143.2089  135.8743  157.2888 O.2     1  UNL1       -0.2733
      4 H         142.6635  139.1118  156.1179 H       1  UNL1        0.1495
      5 N         142.7725  139.1148  160.3174 N.3     1  UNL1       -0.2711
      6 C         143.7778  139.2534  159.2127 C.3     1  UNL1        0.0933
      7 C         142.7862  138.6881  158.2395 C.3     1  UNL1        0.1035
      8 C         141.7809  138.5494  159.3442 C.3     1  UNL1        0.0933
      9 C         142.7436  140.0199  164.7254 C.3     1  UNL1        0.0240
     10 C         142.6167  141.1348  163.7299 C.3     1  UNL1        0.0058
     11 C         142.6264  140.8331  162.2606 C.3     1  UNL1        0.0163
     12 C         142.7629  139.4165  161.7868 C.3     1  UNL1        0.0576
     13 C         142.8897  138.3016  162.7822 C.3     1  UNL1        0.0163
     14 C         142.8801  138.6033  164.2515 C.3     1  UNL1        0.0058
     15 C         142.7146  140.9251  169.1333 C.ar    1  UNL1        0.2250
     16 C         142.6260  142.0432  168.1375 C.ar    1  UNL1        0.0574
     17 C         142.6356  141.7415  166.6681 C.ar    1  UNL1        0.0020
     18 C         142.7339  140.3216  166.1947 C.ar    1  UNL1       -0.0031
     19 C         142.8225  139.2035  167.1905 C.ar    1  UNL1        0.0977
     20 N         142.8129  139.5052  168.6599 N.ar    1  UNL1       -0.2105
     21 C         141.5526  141.9724  171.2076 C.3     1  UNL1        0.2542
     22 O         142.7049  141.2268  170.6026 O.3     1  UNL1       -0.4561
     23 C         143.0169  136.6778  154.8255 C.3     1  UNL1        0.1759
     24 N         143.0059  135.2545  154.3521 N.am    1  UNL1       -0.2931
     25 C         141.7656  134.4241  154.5011 C.2     1  UNL1        0.2462
     26 O         140.5364  135.0170  155.1236 O.2     1  UNL1       -0.2701
     27 H         143.8127  134.8654  153.9435 H       1  UNL1        0.1502
     28 C         141.7546  133.0008  154.0277 C.ar    1  UNL1        0.0533
     29 C         142.6046  132.5917  152.8614 C.ar    1  UNL1        0.0045
     30 C         142.5935  131.1685  152.3879 C.ar    1  UNL1        0.0001
     31 C         141.7325  130.1543  153.0808 C.ar    1  UNL1        0.0039
     32 C         140.8826  130.5633  154.2470 C.ar    1  UNL1        0.0716
     33 C         140.8936  131.9866  154.7205 C.ar    1  UNL1        0.0084
     34 C         140.0216  129.5491  154.9399 C.3     1  UNL1        0.4186
     35 F         139.1606  128.5348  155.6327 F       1  UNL1       -0.1659
     36 F         141.0293  128.4820  154.6302 F       1  UNL1       -0.1659
     37 F         139.0138  130.6161  155.2495 F       1  UNL1       -0.1659
@<TRIPOS>BOND
     1    21    22    1
     2    22    15    1
     3    15    16   ar
     4    16    17   ar
     5    17    18   ar
     6     9    18    1
     7     9    10    1
     8    10    11    1
     9    11    12    1
    10    12     5    1
    11     5     6    1
    12     6     7    1
    13     7     1    1
    14     1     2   am
    15     2     3    2
    16     2    23    1
    17    23    24    1
    18    24    25   am
    19    25    26    2
    20    25    28    1
    21    28    29   ar
    22    29    30   ar
    23    30    31   ar
    24    31    32   ar
    25    32    34    1
    26    34    35    1
    27    34    36    1
    28    34    37    1
    29    32    33   ar
    30     7     8    1
    31    12    13    1
    32    13    14    1
    33    18    19   ar
    34    19    20   ar
    35    20    15   ar
    36    14     9    1
    37     8     5    1
    38    33    28   ar
    39     1     4    1
    40    24    27    1
