@<TRIPOS>MOLECULE
*****
 38 43 0 0 0
SMALL
GASTEIGER

@<TRIPOS>ATOM
      1 C         139.1458  139.7204  157.4213 C.3     1  UNL1        0.0652
      2 S         138.1720  140.7831  157.8367 S.3     1  UNL1       -0.0757
      3 C         138.9352  142.9792  160.9449 C.ar    1  UNL1        0.1669
      4 N         139.4630  143.8463  159.8406 N.ar    1  UNL1       -0.1282
      5 N         139.2414  143.1293  158.5419 N.ar    1  UNL1       -0.1221
      6 C         138.5766  141.8189  158.8435 C.ar    1  UNL1        0.1932
      7 N         138.3873  141.7261  160.3286 N.ar    1  UNL1       -0.2884
      8 C         137.7603  140.5814  161.0677 C.3     1  UNL1        0.1340
      9 C         144.0160  142.6795  165.5649 C.3     1  UNL1        0.0521
     10 C         142.7501  142.8365  164.7758 C.ar    1  UNL1        0.0593
     11 C         142.7330  142.5083  163.3122 C.ar    1  UNL1        0.0147
     12 C         141.4671  142.6653  162.5230 C.ar    1  UNL1        0.0028
     13 C         140.2182  143.1504  163.1975 C.ar    1  UNL1        0.0206
     14 C         138.9522  143.3074  162.4084 C.ar    1  UNL1        0.0374
     15 C         137.7032  143.7925  163.0828 C.ar    1  UNL1        0.0031
     16 C         137.7204  144.1207  164.5464 C.ar    1  UNL1        0.0016
     17 C         138.9863  143.9637  165.3355 C.ar    1  UNL1        0.0191
     18 C         140.2352  143.4786  164.6611 C.ar    1  UNL1        0.0810
     19 N         141.5012  143.3216  165.4502 N.ar    1  UNL1       -0.2497
     20 C         140.4333  139.5485  158.1715 C.3     1  UNL1        0.0135
     21 C         140.5489  138.4924  159.2306 C.3     1  UNL1        0.0182
     22 C         141.8126  138.3659  160.0287 C.3     1  UNL1        0.0721
     23 N         141.8013  138.6504  161.5014 N.3     1  UNL1       -0.2721
     24 C         143.1165  138.4912  162.2051 C.3     1  UNL1        0.0768
     25 C         143.4315  138.6988  163.6569 C.3     1  UNL1        0.0434
     26 C         142.5093  139.1167  164.7635 C.ar    1  UNL1       -0.0225
     27 C         143.2321  139.2062  166.0749 C.ar    1  UNL1        0.0178
     28 C         142.4898  139.6094  167.3144 C.ar    1  UNL1        0.1187
     29 N         142.9318  139.7830  168.7372 N.ar    1  UNL1       -0.2121
     30 C         141.7399  140.2039  169.5448 C.ar    1  UNL1        0.2062
     31 C         141.7287  140.4884  171.0176 C.3     1  UNL1        0.0950
     32 O         140.5613  140.2904  168.6211 O.2     1  UNL1       -0.4379
     33 C         141.0247  139.9230  167.2427 C.ar    1  UNL1        0.1701
     34 C         140.3019  139.8335  165.9313 C.ar    1  UNL1        0.0664
     35 BR        138.8368  140.1471  165.8595 Br      1  UNL1       -0.0461
     36 C         141.0442  139.4303  164.6918 C.ar    1  UNL1       -0.0154
     37 C         140.1395  139.4034  163.4956 C.3     1  UNL1        0.0439
     38 C         140.4765  139.0563  162.0758 C.3     1  UNL1        0.0768
@<TRIPOS>BOND
     1     9    10    1
     2    10    11   ar
     3    11    12   ar
     4    12    13   ar
     5    13    14   ar
     6    14     3    1
     7     3     4   ar
     8     4     5   ar
     9     5     6   ar
    10     6     2    1
    11     2     1    1
    12     1    20    1
    13    20    21    1
    14    21    22    1
    15    22    23    1
    16    23    24    1
    17    24    25    1
    18    25    26    1
    19    26    27   ar
    20    27    28   ar
    21    28    29   ar
    22    29    30   ar
    23    30    31    1
    24    30    32   ar
    25    32    33   ar
    26    33    34   ar
    27    34    35    1
    28    34    36   ar
    29    36    37    1
    30    37    38    1
    31     6     7   ar
    32     7     8    1
    33    14    15   ar
    34    15    16   ar
    35    16    17   ar
    36    17    18   ar
    37    18    19   ar
    38    19    10   ar
    39    18    13   ar
    40     7     3   ar
    41    38    23    1
    42    36    26   ar
    43    33    28   ar
@<TRIPOS>MOLECULE
*****
 38 43 0 0 0
SMALL
GASTEIGER

@<TRIPOS>ATOM
      1 C         140.2828  145.2634  158.8473 C.3     1  UNL1        0.0652
      2 S         139.9222  143.9268  158.2699 S.3     1  UNL1       -0.0757
      3 C         139.6340  140.8797  160.6571 C.ar    1  UNL1        0.1669
      4 N         138.1913  141.2546  160.4901 N.ar    1  UNL1       -0.1282
      5 N         138.1235  142.4417  159.5756 N.ar    1  UNL1       -0.1221
      6 C         139.5245  142.8004  159.1773 C.ar    1  UNL1        0.1932
      7 N         140.4580  141.8351  159.8457 N.ar    1  UNL1       -0.2884
      8 C         141.9530  141.8266  159.7240 C.3     1  UNL1        0.1340
      9 C         138.0495  138.8691  167.0364 C.3     1  UNL1        0.0521
     10 C         138.5772  139.0889  165.6496 C.ar    1  UNL1        0.0593
     11 C         138.0508  140.2205  164.8174 C.ar    1  UNL1        0.0147
     12 C         138.5785  140.4403  163.4306 C.ar    1  UNL1        0.0028
     13 C         139.6326  139.5285  162.8760 C.ar    1  UNL1        0.0206
     14 C         140.1604  139.7482  161.4892 C.ar    1  UNL1        0.0374
     15 C         141.2145  138.8365  160.9346 C.ar    1  UNL1        0.0031
     16 C         141.7408  137.7050  161.7669 C.ar    1  UNL1        0.0016
     17 C         141.2131  137.4852  163.1537 C.ar    1  UNL1        0.0191
     18 C         140.1590  138.3969  163.7083 C.ar    1  UNL1        0.0810
     19 N         139.6313  138.1771  165.0951 N.ar    1  UNL1       -0.2497
     20 C         141.1332  145.3428  160.0804 C.3     1  UNL1        0.0135
     21 C         140.5504  145.8629  161.3611 C.3     1  UNL1        0.0182
     22 C         139.5477  145.0421  162.1167 C.3     1  UNL1        0.0721
     23 N         140.0018  144.1302  163.2177 N.3     1  UNL1       -0.2721
     24 C         139.2422  144.2380  164.5067 C.3     1  UNL1        0.0768
     25 C         139.4487  143.4733  165.7806 C.3     1  UNL1        0.0434
     26 C         140.4655  142.4121  166.0800 C.ar    1  UNL1       -0.0225
     27 C         140.3279  141.9017  167.4838 C.ar    1  UNL1        0.0178
     28 C         141.2519  140.8326  167.9872 C.ar    1  UNL1        0.1187
     29 N         141.3556  140.1380  169.3125 N.ar    1  UNL1       -0.2121
     30 C         142.4814  139.1500  169.2313 C.ar    1  UNL1        0.2062
     31 C         142.9353  138.2382  170.3324 C.3     1  UNL1        0.0950
     32 O         143.0733  139.2340  167.8556 O.2     1  UNL1       -0.4379
     33 C         142.3135  140.2738  167.0867 C.ar    1  UNL1        0.1701
     34 C         142.4511  140.7842  165.6829 C.ar    1  UNL1        0.0664
     35 BR        143.5127  140.2255  164.7825 Br      1  UNL1       -0.0461
     36 C         141.5271  141.8533  165.1796 C.ar    1  UNL1       -0.0154
     37 C         141.8341  142.2178  163.7573 C.3     1  UNL1        0.0439
     38 C         141.1552  143.2312  162.8842 C.3     1  UNL1        0.0768
@<TRIPOS>BOND
     1     9    10    1
     2    10    11   ar
     3    11    12   ar
     4    12    13   ar
     5    13    14   ar
     6    14     3    1
     7     3     4   ar
     8     4     5   ar
     9     5     6   ar
    10     6     2    1
    11     2     1    1
    12     1    20    1
    13    20    21    1
    14    21    22    1
    15    22    23    1
    16    23    24    1
    17    24    25    1
    18    25    26    1
    19    26    27   ar
    20    27    28   ar
    21    28    29   ar
    22    29    30   ar
    23    30    31    1
    24    30    32   ar
    25    32    33   ar
    26    33    34   ar
    27    34    35    1
    28    34    36   ar
    29    36    37    1
    30    37    38    1
    31     6     7   ar
    32     7     8    1
    33    14    15   ar
    34    15    16   ar
    35    16    17   ar
    36    17    18   ar
    37    18    19   ar
    38    19    10   ar
    39    18    13   ar
    40     7     3   ar
    41    38    23    1
    42    36    26   ar
    43    33    28   ar
@<TRIPOS>MOLECULE
*****
 38 43 0 0 0
SMALL
GASTEIGER

@<TRIPOS>ATOM
      1 C         139.8115  143.7514  157.1267 C.3     1  UNL1        0.0652
      2 S         141.0867  144.4649  157.4658 S.3     1  UNL1       -0.0757
      3 C         142.9891  143.4104  160.6805 C.ar    1  UNL1        0.1669
      4 N         143.8008  142.7211  159.6241 N.ar    1  UNL1       -0.1282
      5 N         143.1870  143.0322  158.2913 N.ar    1  UNL1       -0.1221
      6 C         141.9959  143.9138  158.5239 C.ar    1  UNL1        0.1932
      7 N         141.8736  144.1475  160.0006 N.ar    1  UNL1       -0.2884
      8 C         140.8207  144.9734  160.6783 C.3     1  UNL1        0.1340
      9 C         142.3566  138.2875  165.2199 C.3     1  UNL1        0.0521
     10 C         142.5793  139.5580  164.4543 C.ar    1  UNL1        0.0593
     11 C         142.3209  139.5987  162.9772 C.ar    1  UNL1        0.0147
     12 C         142.5437  140.8693  162.2116 C.ar    1  UNL1        0.0028
     13 C         143.0247  142.0991  162.9231 C.ar    1  UNL1        0.0206
     14 C         143.2475  143.3697  162.1575 C.ar    1  UNL1        0.0374
     15 C         143.7285  144.5995  162.8689 C.ar    1  UNL1        0.0031
     16 C         143.9868  144.5587  164.3460 C.ar    1  UNL1        0.0016
     17 C         143.7641  143.2882  165.1116 C.ar    1  UNL1        0.0191
     18 C         143.2831  142.0584  164.4001 C.ar    1  UNL1        0.0810
     19 N         143.0604  140.7878  165.1657 N.ar    1  UNL1       -0.2497
     20 C         139.5406  142.3895  157.6939 C.3     1  UNL1        0.0135
     21 C         138.3494  142.1689  158.5785 C.3     1  UNL1        0.0182
     22 C         138.1931  140.8723  159.3162 C.3     1  UNL1        0.0721
     23 N         138.4413  140.8158  160.7945 N.3     1  UNL1       -0.2721
     24 C         138.1676  139.4947  161.4503 C.3     1  UNL1        0.0768
     25 C         138.3154  139.1194  162.8951 C.3     1  UNL1        0.0434
     26 C         138.7734  139.9723  164.0407 C.ar    1  UNL1       -0.0225
     27 C         138.7768  139.2039  165.3290 C.ar    1  UNL1        0.0178
     28 C         139.2034  139.8743  166.6012 C.ar    1  UNL1        0.1187
     29 N         139.3087  139.3759  168.0120 N.ar    1  UNL1       -0.2121
     30 C         139.7971  140.5068  168.8679 C.ar    1  UNL1        0.2062
     31 C         140.0453  140.4502  170.3462 C.3     1  UNL1        0.0950
     32 O         139.9936  141.7041  167.9861 O.2     1  UNL1       -0.4379
     33 C         139.6267  141.3133  166.5852 C.ar    1  UNL1        0.1701
     34 C         139.6234  142.0818  165.2969 C.ar    1  UNL1        0.0664
     35 BR        140.0467  143.5206  165.2809 Br      1  UNL1       -0.0461
     36 C         139.1968  141.4113  164.0248 C.ar    1  UNL1       -0.0154
     37 C         139.2666  142.3527  162.8590 C.3     1  UNL1        0.0439
     38 C         138.9304  142.0876  161.4214 C.3     1  UNL1        0.0768
@<TRIPOS>BOND
     1     9    10    1
     2    10    11   ar
     3    11    12   ar
     4    12    13   ar
     5    13    14   ar
     6    14     3    1
     7     3     4   ar
     8     4     5   ar
     9     5     6   ar
    10     6     2    1
    11     2     1    1
    12     1    20    1
    13    20    21    1
    14    21    22    1
    15    22    23    1
    16    23    24    1
    17    24    25    1
    18    25    26    1
    19    26    27   ar
    20    27    28   ar
    21    28    29   ar
    22    29    30   ar
    23    30    31    1
    24    30    32   ar
    25    32    33   ar
    26    33    34   ar
    27    34    35    1
    28    34    36   ar
    29    36    37    1
    30    37    38    1
    31     6     7   ar
    32     7     8    1
    33    14    15   ar
    34    15    16   ar
    35    16    17   ar
    36    17    18   ar
    37    18    19   ar
    38    19    10   ar
    39    18    13   ar
    40     7     3   ar
    41    38    23    1
    42    36    26   ar
    43    33    28   ar
@<TRIPOS>MOLECULE
*****
 38 43 0 0 0
SMALL
GASTEIGER

@<TRIPOS>ATOM
      1 C         142.0178  144.9712  157.3632 C.3     1  UNL1        0.0652
      2 S         140.6390  145.3111  157.8462 S.3     1  UNL1       -0.0757
      3 C         138.9763  143.0683  160.5428 C.ar    1  UNL1        0.1669
      4 N         138.3669  142.5144  159.2891 N.ar    1  UNL1       -0.1282
      5 N         138.9154  143.2871  158.1264 N.ar    1  UNL1       -0.1221
      6 C         139.8640  144.3186  158.6614 C.ar    1  UNL1        0.1932
      7 N         139.9017  144.1834  160.1549 N.ar    1  UNL1       -0.2884
      8 C         140.7208  145.0168  161.0952 C.3     1  UNL1        0.1340
      9 C         140.7012  137.2152  163.7075 C.3     1  UNL1        0.0521
     10 C         140.2029  138.5592  163.2654 C.ar    1  UNL1        0.0593
     11 C         140.4714  139.0365  161.8690 C.ar    1  UNL1        0.0147
     12 C         139.9731  140.3804  161.4269 C.ar    1  UNL1        0.0028
     13 C         139.2061  141.2470  162.3812 C.ar    1  UNL1        0.0206
     14 C         138.7077  142.5910  161.9392 C.ar    1  UNL1        0.0374
     15 C         137.9408  143.4577  162.8935 C.ar    1  UNL1        0.0031
     16 C         137.6722  142.9803  164.2899 C.ar    1  UNL1        0.0016
     17 C         138.1706  141.6363  164.7321 C.ar    1  UNL1        0.0191
     18 C         138.9376  140.7697  163.7777 C.ar    1  UNL1        0.0810
     19 N         139.4359  139.4258  164.2198 N.ar    1  UNL1       -0.2497
     20 C         142.5707  143.5940  157.5817 C.3     1  UNL1        0.0135
     21 C         143.4432  143.3160  158.7698 C.3     1  UNL1        0.0182
     22 C         143.6884  141.9018  159.2056 C.3     1  UNL1        0.0721
     23 N         143.5211  141.5214  160.6469 N.3     1  UNL1       -0.2721
     24 C         144.1028  140.1964  161.0419 C.3     1  UNL1        0.0768
     25 C         144.1013  139.5389  162.3903 C.3     1  UNL1        0.0434
     26 C         143.5177  140.0441  163.6763 C.ar    1  UNL1       -0.0225
     27 C         143.7359  139.0709  164.7968 C.ar    1  UNL1        0.0178
     28 C         143.2278  139.3850  166.1727 C.ar    1  UNL1        0.1187
     29 N         143.2931  138.6254  167.4644 N.ar    1  UNL1       -0.2121
     30 C         142.6072  139.4432  168.5183 C.ar    1  UNL1        0.2062
     31 C         142.4399  139.0627  169.9596 C.3     1  UNL1        0.0950
     32 O         142.1180  140.7083  167.8779 O.2     1  UNL1       -0.4379
     33 C         142.5016  140.6724  166.4283 C.ar    1  UNL1        0.1701
     34 C         142.2833  141.6456  165.3078 C.ar    1  UNL1        0.0664
     35 BR        141.5571  142.9329  165.5634 Br      1  UNL1       -0.0461
     36 C         142.7914  141.3314  163.9319 C.ar    1  UNL1       -0.0154
     37 C         142.4694  142.4316  162.9644 C.3     1  UNL1        0.0439
     38 C         142.7942  142.5160  161.5024 C.3     1  UNL1        0.0768
@<TRIPOS>BOND
     1     9    10    1
     2    10    11   ar
     3    11    12   ar
     4    12    13   ar
     5    13    14   ar
     6    14     3    1
     7     3     4   ar
     8     4     5   ar
     9     5     6   ar
    10     6     2    1
    11     2     1    1
    12     1    20    1
    13    20    21    1
    14    21    22    1
    15    22    23    1
    16    23    24    1
    17    24    25    1
    18    25    26    1
    19    26    27   ar
    20    27    28   ar
    21    28    29   ar
    22    29    30   ar
    23    30    31    1
    24    30    32   ar
    25    32    33   ar
    26    33    34   ar
    27    34    35    1
    28    34    36   ar
    29    36    37    1
    30    37    38    1
    31     6     7   ar
    32     7     8    1
    33    14    15   ar
    34    15    16   ar
    35    16    17   ar
    36    17    18   ar
    37    18    19   ar
    38    19    10   ar
    39    18    13   ar
    40     7     3   ar
    41    38    23    1
    42    36    26   ar
    43    33    28   ar
@<TRIPOS>MOLECULE
*****
 38 43 0 0 0
SMALL
GASTEIGER

@<TRIPOS>ATOM
      1 C         140.3052  143.8671  157.4206 C.3     1  UNL1        0.0652
      2 S         141.6916  144.3836  157.6679 S.3     1  UNL1       -0.0757
      3 C         143.3617  143.2692  160.9898 C.ar    1  UNL1        0.1669
      4 N         144.2264  142.5712  159.9822 N.ar    1  UNL1       -0.1282
      5 N         143.7061  142.9036  158.6152 N.ar    1  UNL1       -0.1221
      6 C         142.5198  143.8071  158.7779 C.ar    1  UNL1        0.1932
      7 N         142.3069  144.0331  160.2455 N.ar    1  UNL1       -0.2884
      8 C         141.2287  144.8750  160.8607 C.3     1  UNL1        0.1340
      9 C         142.4220  138.1041  165.4269 C.3     1  UNL1        0.0521
     10 C         142.6973  139.3813  164.6902 C.ar    1  UNL1        0.0593
     11 C         142.5357  139.4374  163.1999 C.ar    1  UNL1        0.0147
     12 C         142.8110  140.7146  162.4632 C.ar    1  UNL1        0.0028
     13 C         143.2480  141.9358  163.2167 C.ar    1  UNL1        0.0206
     14 C         143.5233  143.2132  162.4799 C.ar    1  UNL1        0.0374
     15 C         143.9603  144.4344  163.2334 C.ar    1  UNL1        0.0031
     16 C         144.1219  144.3783  164.7236 C.ar    1  UNL1        0.0016
     17 C         143.8465  143.1010  165.4604 C.ar    1  UNL1        0.0191
     18 C         143.4096  141.8798  164.7069 C.ar    1  UNL1        0.0810
     19 N         143.1343  140.6025  165.4437 N.ar    1  UNL1       -0.2497
     20 C         139.8926  142.5337  157.9698 C.3     1  UNL1        0.0135
     21 C         138.6663  142.4224  158.8266 C.3     1  UNL1        0.0182
     22 C         138.3829  141.1501  159.5688 C.3     1  UNL1        0.0721
     23 N         138.6491  141.0662  161.0426 N.3     1  UNL1       -0.2721
     24 C         139.1606  142.3222  161.6839 C.3     1  UNL1        0.0768
     25 C         139.5179  142.5596  163.1214 C.3     1  UNL1        0.0434
     26 C         139.4521  141.6000  164.2722 C.ar    1  UNL1       -0.0225
     27 C         139.9024  142.2445  165.5497 C.ar    1  UNL1        0.0178
     28 C         139.9132  141.4549  166.8249 C.ar    1  UNL1        0.1187
     29 N         140.3022  141.8184  168.2272 N.ar    1  UNL1       -0.2121
     30 C         140.1032  140.6089  169.0918 C.ar    1  UNL1        0.2062
     31 C         140.3695  140.5252  170.5656 C.3     1  UNL1        0.0950
     32 O         139.5912  139.4979  168.2238 O.2     1  UNL1       -0.4379
     33 C         139.4738  140.0207  166.8229 C.ar    1  UNL1        0.1701
     34 C         139.0235  139.3761  165.5454 C.ar    1  UNL1        0.0664
     35 BR        138.5842  137.9420  165.5433 Br      1  UNL1       -0.0461
     36 C         139.0127  140.1657  164.2701 C.ar    1  UNL1       -0.0154
     37 C         138.5306  139.3370  163.1165 C.3     1  UNL1        0.0439
     38 C         138.3688  139.7379  161.6801 C.3     1  UNL1        0.0768
@<TRIPOS>BOND
     1     9    10    1
     2    10    11   ar
     3    11    12   ar
     4    12    13   ar
     5    13    14   ar
     6    14     3    1
     7     3     4   ar
     8     4     5   ar
     9     5     6   ar
    10     6     2    1
    11     2     1    1
    12     1    20    1
    13    20    21    1
    14    21    22    1
    15    22    23    1
    16    23    24    1
    17    24    25    1
    18    25    26    1
    19    26    27   ar
    20    27    28   ar
    21    28    29   ar
    22    29    30   ar
    23    30    31    1
    24    30    32   ar
    25    32    33   ar
    26    33    34   ar
    27    34    35    1
    28    34    36   ar
    29    36    37    1
    30    37    38    1
    31     6     7   ar
    32     7     8    1
    33    14    15   ar
    34    15    16   ar
    35    16    17   ar
    36    17    18   ar
    37    18    19   ar
    38    19    10   ar
    39    18    13   ar
    40     7     3   ar
    41    38    23    1
    42    36    26   ar
    43    33    28   ar
@<TRIPOS>MOLECULE
*****
 38 43 0 0 0
SMALL
GASTEIGER

@<TRIPOS>ATOM
      1 C         141.8978  138.8135  157.1093 C.3     1  UNL1        0.0652
      2 S         143.2065  139.5057  157.3508 S.3     1  UNL1       -0.0757
      3 C         143.6449  141.6621  160.5482 C.ar    1  UNL1        0.1669
      4 N         143.3030  142.7132  159.5343 N.ar    1  UNL1       -0.1282
      5 N         143.0971  142.0335  158.2131 N.ar    1  UNL1       -0.1221
      6 C         143.3118  140.5621  158.4105 C.ar    1  UNL1        0.1932
      7 N         143.6504  140.3325  159.8537 N.ar    1  UNL1       -0.2884
      8 C         143.9431  139.0064  160.4905 C.3     1  UNL1        0.1340
      9 C         139.5206  143.6238  165.6855 C.3     1  UNL1        0.0521
     10 C         140.6233  143.1925  164.7645 C.ar    1  UNL1        0.0593
     11 C         140.3370  142.9558  163.3112 C.ar    1  UNL1        0.0147
     12 C         141.4397  142.5246  162.3901 C.ar    1  UNL1        0.0028
     13 C         142.8285  142.3300  162.9224 C.ar    1  UNL1        0.0206
     14 C         143.9312  141.8987  162.0015 C.ar    1  UNL1        0.0374
     15 C         145.3200  141.7042  162.5338 C.ar    1  UNL1        0.0031
     16 C         145.6061  141.9409  163.9871 C.ar    1  UNL1        0.0016
     17 C         144.5035  142.3721  164.9081 C.ar    1  UNL1        0.0191
     18 C         143.1147  142.5667  164.3758 C.ar    1  UNL1        0.0810
     19 N         142.0121  142.9979  165.2968 N.ar    1  UNL1       -0.2497
     20 C         141.0782  138.3331  158.2701 C.3     1  UNL1        0.0135
     21 C         140.1062  139.2608  158.9369 C.3     1  UNL1        0.0182
     22 C         139.1535  138.7337  159.9687 C.3     1  UNL1        0.0721
     23 N         139.4155  138.9774  161.4254 N.3     1  UNL1       -0.2721
     24 C         138.2397  139.4507  162.2277 C.3     1  UNL1        0.0768
     25 C         138.1766  139.7791  163.6900 C.3     1  UNL1        0.0434
     26 C         139.2735  139.7152  164.7110 C.ar    1  UNL1       -0.0225
     27 C         138.7847  140.1303  166.0671 C.ar    1  UNL1        0.0178
     28 C         139.7270  140.1373  167.2342 C.ar    1  UNL1        0.1187
     29 N         139.5339  140.4951  168.6780 N.ar    1  UNL1       -0.2121
     30 C         140.8455  140.3083  169.3813 C.ar    1  UNL1        0.2062
     31 C         141.1073  140.5520  170.8381 C.3     1  UNL1        0.0950
     32 O         141.8493  139.8350  168.3722 O.2     1  UNL1       -0.4379
     33 C         141.1581  139.7293  167.0453 C.ar    1  UNL1        0.1701
     34 C         141.6468  139.3143  165.6891 C.ar    1  UNL1        0.0664
     35 BR        143.0778  138.9063  165.5002 Br      1  UNL1       -0.0461
     36 C         140.7045  139.3072  164.5221 C.ar    1  UNL1       -0.0154
     37 C         141.3920  138.8623  163.2653 C.3     1  UNL1        0.0439
     38 C         140.8183  138.7156  161.8872 C.3     1  UNL1        0.0768
@<TRIPOS>BOND
     1     9    10    1
     2    10    11   ar
     3    11    12   ar
     4    12    13   ar
     5    13    14   ar
     6    14     3    1
     7     3     4   ar
     8     4     5   ar
     9     5     6   ar
    10     6     2    1
    11     2     1    1
    12     1    20    1
    13    20    21    1
    14    21    22    1
    15    22    23    1
    16    23    24    1
    17    24    25    1
    18    25    26    1
    19    26    27   ar
    20    27    28   ar
    21    28    29   ar
    22    29    30   ar
    23    30    31    1
    24    30    32   ar
    25    32    33   ar
    26    33    34   ar
    27    34    35    1
    28    34    36   ar
    29    36    37    1
    30    37    38    1
    31     6     7   ar
    32     7     8    1
    33    14    15   ar
    34    15    16   ar
    35    16    17   ar
    36    17    18   ar
    37    18    19   ar
    38    19    10   ar
    39    18    13   ar
    40     7     3   ar
    41    38    23    1
    42    36    26   ar
    43    33    28   ar
@<TRIPOS>MOLECULE
*****
 38 43 0 0 0
SMALL
GASTEIGER

@<TRIPOS>ATOM
      1 C         141.7498  138.8143  157.0209 C.3     1  UNL1        0.0652
      2 S         140.8872  140.0415  157.0235 S.3     1  UNL1       -0.0757
      3 C         138.6586  140.8221  160.1041 C.ar    1  UNL1        0.1669
      4 N         137.6898  140.0901  159.2235 N.ar    1  UNL1       -0.1282
      5 N         138.4066  139.7086  157.9623 N.ar    1  UNL1       -0.1221
      6 C         139.8186  140.2048  158.0635 C.ar    1  UNL1        0.1932
      7 N         139.9743  140.8930  159.3872 N.ar    1  UNL1       -0.2884
      8 C         141.2259  141.5387  159.9033 C.3     1  UNL1        0.1340
      9 C         138.4327  137.7987  166.2732 C.3     1  UNL1        0.0521
     10 C         138.4154  138.6951  165.0706 C.ar    1  UNL1        0.0593
     11 C         138.7104  138.1327  163.7116 C.ar    1  UNL1        0.0147
     12 C         138.6931  139.0292  162.5091 C.ar    1  UNL1        0.0028
     13 C         138.3809  140.4880  162.6655 C.ar    1  UNL1        0.0206
     14 C         138.3636  141.3845  161.4630 C.ar    1  UNL1        0.0374
     15 C         138.0514  142.8433  161.6194 C.ar    1  UNL1        0.0031
     16 C         137.7565  143.4055  162.9784 C.ar    1  UNL1        0.0016
     17 C         137.7737  142.5091  164.1809 C.ar    1  UNL1        0.0191
     18 C         138.0860  141.0503  164.0245 C.ar    1  UNL1        0.0810
     19 N         138.1032  140.1539  165.2271 N.ar    1  UNL1       -0.2497
     20 C         142.8403  138.6620  158.0394 C.3     1  UNL1        0.0135
     21 C         142.5241  138.1177  159.4010 C.3     1  UNL1        0.0182
     22 C         143.6028  138.0200  160.4387 C.3     1  UNL1        0.0721
     23 N         143.4206  138.6782  161.7742 N.3     1  UNL1       -0.2721
     24 C         142.5996  137.9135  162.7699 C.3     1  UNL1        0.0768
     25 C         142.2387  138.2958  164.1749 C.3     1  UNL1        0.0434
     26 C         142.6096  139.5370  164.9309 C.ar    1  UNL1       -0.0225
     27 C         142.0400  139.5242  166.3186 C.ar    1  UNL1        0.0178
     28 C         142.2939  140.6769  167.2442 C.ar    1  UNL1        0.1187
     29 N         141.8661  140.9426  168.6571 N.ar    1  UNL1       -0.2121
     30 C         142.4251  142.2724  169.0684 C.ar    1  UNL1        0.2062
     31 C         142.2428  142.9305  170.4039 C.3     1  UNL1        0.0950
     32 O         143.1984  142.8285  167.9096 O.2     1  UNL1       -0.4379
     33 C         143.1173  141.8425  166.7823 C.ar    1  UNL1        0.1701
     34 C         143.6868  141.8553  165.3946 C.ar    1  UNL1        0.0664
     35 BR        144.5102  143.0208  164.9326 Br      1  UNL1       -0.0461
     36 C         143.4330  140.7026  164.4690 C.ar    1  UNL1       -0.0154
     37 C         144.0889  140.9148  163.1368 C.3     1  UNL1        0.0439
     38 C         144.0833  140.0138  161.9375 C.3     1  UNL1        0.0768
@<TRIPOS>BOND
     1     9    10    1
     2    10    11   ar
     3    11    12   ar
     4    12    13   ar
     5    13    14   ar
     6    14     3    1
     7     3     4   ar
     8     4     5   ar
     9     5     6   ar
    10     6     2    1
    11     2     1    1
    12     1    20    1
    13    20    21    1
    14    21    22    1
    15    22    23    1
    16    23    24    1
    17    24    25    1
    18    25    26    1
    19    26    27   ar
    20    27    28   ar
    21    28    29   ar
    22    29    30   ar
    23    30    31    1
    24    30    32   ar
    25    32    33   ar
    26    33    34   ar
    27    34    35    1
    28    34    36   ar
    29    36    37    1
    30    37    38    1
    31     6     7   ar
    32     7     8    1
    33    14    15   ar
    34    15    16   ar
    35    16    17   ar
    36    17    18   ar
    37    18    19   ar
    38    19    10   ar
    39    18    13   ar
    40     7     3   ar
    41    38    23    1
    42    36    26   ar
    43    33    28   ar
@<TRIPOS>MOLECULE
*****
 38 43 0 0 0
SMALL
GASTEIGER

@<TRIPOS>ATOM
      1 C         142.6036  139.7568  156.6895 C.3     1  UNL1        0.0652
      2 S         141.9174  141.0583  156.3978 S.3     1  UNL1       -0.0757
      3 C         141.9482  143.8222  159.1228 C.ar    1  UNL1        0.1669
      4 N         143.0344  144.3050  158.2080 N.ar    1  UNL1       -0.1282
      5 N         143.1552  143.3285  157.0759 N.ar    1  UNL1       -0.1221
      6 C         142.1435  142.2421  157.2909 C.ar    1  UNL1        0.1932
      7 N         141.3975  142.5472  158.5561 N.ar    1  UNL1       -0.2884
      8 C         140.2945  141.7223  159.1501 C.3     1  UNL1        0.1340
      9 C         144.6692  143.8730  165.4350 C.3     1  UNL1        0.0521
     10 C         143.8750  144.0288  164.1720 C.ar    1  UNL1        0.0593
     11 C         144.3307  143.3550  162.9116 C.ar    1  UNL1        0.0147
     12 C         143.5365  143.5107  161.6487 C.ar    1  UNL1        0.0028
     13 C         142.2868  144.3402  161.6461 C.ar    1  UNL1        0.0206
     14 C         141.4925  144.4960  160.3831 C.ar    1  UNL1        0.0374
     15 C         140.2428  145.3255  160.3805 C.ar    1  UNL1        0.0031
     16 C         139.7872  145.9992  161.6408 C.ar    1  UNL1        0.0016
     17 C         140.5813  145.8435  162.9038 C.ar    1  UNL1        0.0191
     18 C         141.8311  145.0140  162.9064 C.ar    1  UNL1        0.0810
     19 N         142.6253  144.8583  164.1694 N.ar    1  UNL1       -0.2497
     20 C         143.4045  139.5968  157.9476 C.3     1  UNL1        0.0135
     21 C         142.7970  138.9248  159.1432 C.3     1  UNL1        0.0182
     22 C         143.6086  138.7356  160.3903 C.3     1  UNL1        0.0721
     23 N         143.1776  139.3856  161.6716 N.3     1  UNL1       -0.2721
     24 C         144.0927  139.1848  162.8431 C.3     1  UNL1        0.0768
     25 C         143.9446  139.6994  164.2444 C.3     1  UNL1        0.0434
     26 C         142.8451  140.5415  164.8201 C.ar    1  UNL1       -0.0225
     27 C         143.0834  140.8366  166.2714 C.ar    1  UNL1        0.0178
     28 C         142.0986  141.6674  167.0395 C.ar    1  UNL1        0.1187
     29 N         142.0666  142.1200  168.4691 N.ar    1  UNL1       -0.2121
     30 C         140.8237  142.9355  168.6695 C.ar    1  UNL1        0.2062
     31 C         140.3928  143.5855  169.9509 C.3     1  UNL1        0.0950
     32 O         140.0875  142.9869  167.3637 O.2     1  UNL1       -0.4379
     33 C         140.8754  142.2032  166.3563 C.ar    1  UNL1        0.1701
     34 C         140.6371  141.9081  164.9050 C.ar    1  UNL1        0.0664
     35 BR        139.4139  142.4439  164.2218 Br      1  UNL1       -0.0461
     36 C         141.6219  141.0773  164.1369 C.ar    1  UNL1       -0.0154
     37 C         141.1962  140.9032  162.7092 C.3     1  UNL1        0.0439
     38 C         141.8886  140.1503  161.6120 C.3     1  UNL1        0.0768
@<TRIPOS>BOND
     1     9    10    1
     2    10    11   ar
     3    11    12   ar
     4    12    13   ar
     5    13    14   ar
     6    14     3    1
     7     3     4   ar
     8     4     5   ar
     9     5     6   ar
    10     6     2    1
    11     2     1    1
    12     1    20    1
    13    20    21    1
    14    21    22    1
    15    22    23    1
    16    23    24    1
    17    24    25    1
    18    25    26    1
    19    26    27   ar
    20    27    28   ar
    21    28    29   ar
    22    29    30   ar
    23    30    31    1
    24    30    32   ar
    25    32    33   ar
    26    33    34   ar
    27    34    35    1
    28    34    36   ar
    29    36    37    1
    30    37    38    1
    31     6     7   ar
    32     7     8    1
    33    14    15   ar
    34    15    16   ar
    35    16    17   ar
    36    17    18   ar
    37    18    19   ar
    38    19    10   ar
    39    18    13   ar
    40     7     3   ar
    41    38    23    1
    42    36    26   ar
    43    33    28   ar
@<TRIPOS>MOLECULE
*****
 38 43 0 0 0
SMALL
GASTEIGER

@<TRIPOS>ATOM
      1 C         140.7599  143.2944  156.8322 C.3     1  UNL1        0.0652
      2 S         142.1775  142.8427  156.6409 S.3     1  UNL1       -0.0757
      3 C         143.6746  141.1086  159.7741 C.ar    1  UNL1        0.1669
      4 N         143.9849  140.0997  158.7084 N.ar    1  UNL1       -0.1282
      5 N         143.4619  140.6264  157.4049 N.ar    1  UNL1       -0.1221
      6 C         142.8283  141.9610  157.6651 C.ar    1  UNL1        0.1932
      7 N         142.9598  142.2589  159.1293 N.ar    1  UNL1       -0.2884
      8 C         142.4635  143.4909  159.8264 C.3     1  UNL1        0.1340
      9 C         141.0581  137.0907  164.6996 C.3     1  UNL1        0.0521
     10 C         141.7982  138.0651  163.8320 C.ar    1  UNL1        0.0593
     11 C         141.4542  138.1854  162.3769 C.ar    1  UNL1        0.0147
     12 C         142.1943  139.1598  161.5093 C.ar    1  UNL1        0.0028
     13 C         143.2785  140.0139  162.0967 C.ar    1  UNL1        0.0206
     14 C         144.0187  140.9883  161.2291 C.ar    1  UNL1        0.0374
     15 C         145.1029  141.8424  161.8166 C.ar    1  UNL1        0.0031
     16 C         145.4468  141.7221  163.2716 C.ar    1  UNL1        0.0016
     17 C         144.7067  140.7477  164.1392 C.ar    1  UNL1        0.0191
     18 C         143.6225  139.8936  163.5518 C.ar    1  UNL1        0.0810
     19 N         142.8824  138.9192  164.4194 N.ar    1  UNL1       -0.2497
     20 C         139.7068  142.3071  157.2397 C.3     1  UNL1        0.0135
     21 C         139.0047  142.4602  158.5565 C.3     1  UNL1        0.0182
     22 C         138.4864  141.2499  159.2751 C.3     1  UNL1        0.0721
     23 N         138.7230  141.0937  160.7481 N.3     1  UNL1       -0.2721
     24 C         137.8627  140.0790  161.4414 C.3     1  UNL1        0.0768
     25 C         137.8555  139.6928  162.8909 C.3     1  UNL1        0.0434
     26 C         138.7067  140.2258  164.0049 C.ar    1  UNL1       -0.0225
     27 C         138.3772  139.5650  165.3106 C.ar    1  UNL1        0.0178
     28 C         139.1163  139.9552  166.5562 C.ar    1  UNL1        0.1187
     29 N         139.0110  139.4818  167.9756 N.ar    1  UNL1       -0.2121
     30 C         140.0146  140.2402  168.7928 C.ar    1  UNL1        0.2062
     31 C         140.2511  140.0839  170.2658 C.3     1  UNL1        0.0950
     32 O         140.7401  141.1822  167.8784 O.2     1  UNL1       -0.4379
     33 C         140.1850  141.0061  166.4962 C.ar    1  UNL1        0.1701
     34 C         140.5145  141.6668  165.1904 C.ar    1  UNL1        0.0664
     35 BR        141.5831  142.7177  165.1303 Br      1  UNL1       -0.0461
     36 C         139.7754  141.2767  163.9448 C.ar    1  UNL1       -0.0154
     37 C         140.2568  142.0541  162.7558 C.3     1  UNL1        0.0439
     38 C         139.7883  141.9726  161.3331 C.3     1  UNL1        0.0768
@<TRIPOS>BOND
     1     9    10    1
     2    10    11   ar
     3    11    12   ar
     4    12    13   ar
     5    13    14   ar
     6    14     3    1
     7     3     4   ar
     8     4     5   ar
     9     5     6   ar
    10     6     2    1
    11     2     1    1
    12     1    20    1
    13    20    21    1
    14    21    22    1
    15    22    23    1
    16    23    24    1
    17    24    25    1
    18    25    26    1
    19    26    27   ar
    20    27    28   ar
    21    28    29   ar
    22    29    30   ar
    23    30    31    1
    24    30    32   ar
    25    32    33   ar
    26    33    34   ar
    27    34    35    1
    28    34    36   ar
    29    36    37    1
    30    37    38    1
    31     6     7   ar
    32     7     8    1
    33    14    15   ar
    34    15    16   ar
    35    16    17   ar
    36    17    18   ar
    37    18    19   ar
    38    19    10   ar
    39    18    13   ar
    40     7     3   ar
    41    38    23    1
    42    36    26   ar
    43    33    28   ar
