@<TRIPOS>MOLECULE
*****
 42 45 0 0 0
SMALL
GASTEIGER

@<TRIPOS>ATOM
      1 C         142.2552  140.9687  163.2259 C.3     1  UNL1        0.0799
      2 C         142.4746  141.3395  164.6628 C.ar    1  UNL1        0.0374
      3 C         141.6610  140.6841  165.7391 C.ar    1  UNL1        0.0023
      4 C         141.8804  141.0548  167.1759 C.ar    1  UNL1        0.0181
      5 C         141.0668  140.3994  168.2522 C.ar    1  UNL1        0.0082
      6 C         141.2863  140.7701  169.6891 C.ar    1  UNL1        0.0347
      7 BR        140.4727  140.1147  170.7654 Br      1  UNL1       -0.0490
      8 C         142.3193  141.7962  170.0495 C.ar    1  UNL1        0.0082
      9 C         143.1329  142.4516  168.9732 C.ar    1  UNL1        0.0197
     10 C         142.9135  142.0809  167.5364 C.ar    1  UNL1        0.0844
     11 N         143.7271  142.7363  166.4601 N.ar    1  UNL1       -0.2119
     12 C         143.5077  142.3655  165.0232 C.ar    1  UNL1        0.2211
     13 O         144.3213  143.0209  163.9469 O.3     1  UNL1       -0.4563
     14 C         144.0151  144.4281  163.5271 C.3     1  UNL1        0.2542
     15 C         141.5214  141.9059  162.3132 C.ar    1  UNL1        0.0148
     16 C         142.2146  142.4808  161.1137 C.ar    1  UNL1       -0.0014
     17 C         141.4808  143.4181  160.2009 C.ar    1  UNL1        0.0029
     18 C         140.0538  143.7804  160.4876 C.ar    1  UNL1        0.0392
     19 C         139.3606  143.2055  161.6872 C.ar    1  UNL1        0.1657
     20 C         140.0943  142.2683  162.6000 C.ar    1  UNL1        0.1702
     21 F         139.4011  141.6935  163.7995 F       1  UNL1       -0.2013
     22 O         137.9335  143.5679  161.9740 O.3     1  UNL1       -0.4692
     23 C         137.5876  144.3200  163.2250 C.3     1  UNL1        0.2526
     24 C         142.7695  139.6607  162.7019 C.3     1  UNL1        0.1162
     25 O         144.1625  140.2169  162.6810 O.3     1  UNL1       -0.3820
     26 H         144.7763  139.5393  162.3570 H       1  UNL1        0.2107
     27 C         139.4590  137.8863  163.9831 C.ar    1  UNL1        0.2271
     28 C         140.8519  138.4425  163.9622 C.ar    1  UNL1        0.0559
     29 C         141.3766  139.1046  162.7228 C.ar    1  UNL1        0.0117
     30 C         140.5084  139.2105  161.5043 C.ar    1  UNL1        0.0559
     31 C         139.1154  138.6544  161.5252 C.ar    1  UNL1        0.2272
     32 N         138.5907  137.9923  162.7646 N.ar    1  UNL1       -0.1767
     33 O         138.2472  138.7604  160.3065 O.3     1  UNL1       -0.4561
     34 C         137.6409  140.0797  159.9301 C.3     1  UNL1        0.2542
     35 O         138.9343  137.2242  165.2227 O.3     1  UNL1       -0.4602
     36 C         138.1011  139.5083  166.1383 C.3     1  UNL1        0.0512
     37 C         138.1147  138.0098  166.2030 C.3     1  UNL1        0.2072
     38 C         143.2839  138.3528  162.1778 C.3     1  UNL1        0.0491
     39 C         144.1479  138.3235  160.9521 C.3     1  UNL1        0.0750
     40 N         143.5917  138.7674  159.6316 N.3     1  UNL1       -0.2702
     41 C         143.9139  140.1337  159.1032 C.3     1  UNL1        0.0897
     42 C         142.7132  137.8449  158.8396 C.3     1  UNL1        0.0897
@<TRIPOS>BOND
     1    36    37    1
     2    37    35    1
     3    35    27    1
     4    27    28   ar
     5    28    29   ar
     6    29    24    1
     7    24    25    1
     8    24    38    1
     9    38    39    1
    10    39    40    1
    11    40    41    1
    12    40    42    1
    13    24     1    1
    14     1     2    1
    15     2     3   ar
    16     3     4   ar
    17     4     5   ar
    18     5     6   ar
    19     6     7    1
    20     6     8   ar
    21     8     9   ar
    22     9    10   ar
    23    10    11   ar
    24    11    12   ar
    25    12    13    1
    26    13    14    1
    27     1    15    1
    28    15    16   ar
    29    16    17   ar
    30    17    18   ar
    31    18    19   ar
    32    19    22    1
    33    22    23    1
    34    19    20   ar
    35    20    21    1
    36    29    30   ar
    37    30    31   ar
    38    31    33    1
    39    33    34    1
    40    31    32   ar
    41    32    27   ar
    42    12     2   ar
    43    20    15   ar
    44    10     4   ar
    45    25    26    1
@<TRIPOS>MOLECULE
*****
 42 45 0 0 0
SMALL
GASTEIGER

@<TRIPOS>ATOM
      1 C         140.7635  140.4722  163.1213 C.3     1  UNL1        0.0799
      2 C         140.4373  140.4226  164.5846 C.ar    1  UNL1        0.0374
      3 C         140.6661  141.6296  165.4454 C.ar    1  UNL1        0.0023
      4 C         140.3399  141.5800  166.9086 C.ar    1  UNL1        0.0181
      5 C         140.5687  142.7870  167.7693 C.ar    1  UNL1        0.0082
      6 C         140.2425  142.7373  169.2326 C.ar    1  UNL1        0.0347
      7 BR        140.4713  143.9443  170.0934 Br      1  UNL1       -0.0490
      8 C         139.6876  141.4808  169.8351 C.ar    1  UNL1        0.0082
      9 C         139.4588  140.2738  168.9744 C.ar    1  UNL1        0.0197
     10 C         139.7850  140.3234  167.5112 C.ar    1  UNL1        0.0844
     11 N         139.5562  139.1164  166.6504 N.ar    1  UNL1       -0.2119
     12 C         139.8824  139.1660  165.1871 C.ar    1  UNL1        0.2211
     13 O         139.6536  137.9590  164.3264 O.3     1  UNL1       -0.4563
     14 C         140.6781  136.8642  164.2823 C.3     1  UNL1        0.2542
     15 C         141.9435  139.7139  162.5898 C.ar    1  UNL1        0.0148
     16 C         143.2744  139.8225  163.2730 C.ar    1  UNL1       -0.0014
     17 C         144.4545  139.0641  162.7415 C.ar    1  UNL1        0.0029
     18 C         144.3035  138.1972  161.5268 C.ar    1  UNL1        0.0392
     19 C         142.9725  138.0885  160.8436 C.ar    1  UNL1        0.1657
     20 C         141.7926  138.8469  161.3751 C.ar    1  UNL1        0.1702
     21 F         140.4617  138.7382  160.6919 F       1  UNL1       -0.2013
     22 O         142.8216  137.2215  159.6288 O.3     1  UNL1       -0.4692
     23 C         142.6256  137.8479  158.2800 C.3     1  UNL1        0.2526
     24 C         139.9097  141.2802  162.1896 C.3     1  UNL1        0.1162
     25 O         138.7505  140.3676  162.4605 O.3     1  UNL1       -0.3820
     26 H         137.9800  140.6635  161.9508 H       1  UNL1        0.2107
     27 C         142.8277  143.9079  162.7642 C.ar    1  UNL1        0.2271
     28 C         141.6685  142.9953  163.0351 C.ar    1  UNL1        0.0559
     29 C         141.0689  142.1928  161.9187 C.ar    1  UNL1        0.0117
     30 C         141.6285  142.3029  160.5314 C.ar    1  UNL1        0.0559
     31 C         142.7877  143.2155  160.2605 C.ar    1  UNL1        0.2272
     32 N         143.3873  144.0180  161.3769 N.ar    1  UNL1       -0.1767
     33 O         143.3473  143.3256  158.8731 O.3     1  UNL1       -0.4561
     34 C         144.5437  142.5106  158.4801 C.3     1  UNL1        0.2542
     35 O         143.4274  144.7104  163.8807 O.3     1  UNL1       -0.4602
     36 C         144.0042  143.0040  165.7531 C.3     1  UNL1        0.0512
     37 C         144.4312  144.0817  164.8011 C.3     1  UNL1        0.2072
     38 C         139.0559  142.0882  161.2578 C.3     1  UNL1        0.0491
     39 C         137.8845  142.8582  161.7916 C.3     1  UNL1        0.0750
     40 N         138.0128  143.6254  163.0741 N.3     1  UNL1       -0.2702
     41 C         138.6535  144.9816  163.0759 C.3     1  UNL1        0.0897
     42 C         137.5003  143.0364  164.3549 C.3     1  UNL1        0.0897
@<TRIPOS>BOND
     1    36    37    1
     2    37    35    1
     3    35    27    1
     4    27    28   ar
     5    28    29   ar
     6    29    24    1
     7    24    25    1
     8    24    38    1
     9    38    39    1
    10    39    40    1
    11    40    41    1
    12    40    42    1
    13    24     1    1
    14     1     2    1
    15     2     3   ar
    16     3     4   ar
    17     4     5   ar
    18     5     6   ar
    19     6     7    1
    20     6     8   ar
    21     8     9   ar
    22     9    10   ar
    23    10    11   ar
    24    11    12   ar
    25    12    13    1
    26    13    14    1
    27     1    15    1
    28    15    16   ar
    29    16    17   ar
    30    17    18   ar
    31    18    19   ar
    32    19    22    1
    33    22    23    1
    34    19    20   ar
    35    20    21    1
    36    29    30   ar
    37    30    31   ar
    38    31    33    1
    39    33    34    1
    40    31    32   ar
    41    32    27   ar
    42    12     2   ar
    43    20    15   ar
    44    10     4   ar
    45    25    26    1
@<TRIPOS>MOLECULE
*****
 42 45 0 0 0
SMALL
GASTEIGER

@<TRIPOS>ATOM
      1 C         141.2913  140.9140  162.5933 C.3     1  UNL1        0.0799
      2 C         141.3383  140.6662  164.0720 C.ar    1  UNL1        0.0374
      3 C         141.0007  141.7711  165.0287 C.ar    1  UNL1        0.0023
      4 C         141.0477  141.5233  166.5073 C.ar    1  UNL1        0.0181
      5 C         140.7101  142.6282  167.4640 C.ar    1  UNL1        0.0082
      6 C         140.7571  142.3804  168.9427 C.ar    1  UNL1        0.0347
      7 BR        140.4195  143.4853  169.8994 Br      1  UNL1       -0.0490
      8 C         141.1417  141.0278  169.4646 C.ar    1  UNL1        0.0082
      9 C         141.4792  139.9229  168.5079 C.ar    1  UNL1        0.0197
     10 C         141.4322  140.1706  167.0293 C.ar    1  UNL1        0.0844
     11 N         141.7698  139.0658  166.0726 N.ar    1  UNL1       -0.2119
     12 C         141.7228  139.3136  164.5939 C.ar    1  UNL1        0.2211
     13 O         142.0604  138.2087  163.6372 O.3     1  UNL1       -0.4563
     14 C         141.0315  137.1720  163.2955 C.3     1  UNL1        0.2542
     15 C         140.1003  140.4713  161.7961 C.ar    1  UNL1        0.0148
     16 C         138.7183  140.8504  162.2392 C.ar    1  UNL1       -0.0014
     17 C         137.5272  140.4077  161.4420 C.ar    1  UNL1        0.0029
     18 C         137.7182  139.5859  160.2017 C.ar    1  UNL1        0.0392
     19 C         139.1003  139.2069  159.7587 C.ar    1  UNL1        0.1657
     20 C         140.2913  139.6496  160.5558 C.ar    1  UNL1        0.1702
     21 F         141.6733  139.2705  160.1127 F       1  UNL1       -0.2013
     22 O         139.2913  138.3851  158.5184 O.3     1  UNL1       -0.4692
     23 C         139.7765  139.0341  157.2560 C.3     1  UNL1        0.2526
     24 C         142.4353  141.6045  161.9118 C.3     1  UNL1        0.1162
     25 O         143.3282  140.4430  162.2338 O.3     1  UNL1       -0.3820
     26 H         144.2182  140.6137  161.8878 H       1  UNL1        0.2107
     27 C         140.0280  144.7254  162.3755 C.ar    1  UNL1        0.2271
     28 C         140.9209  143.5639  162.6975 C.ar    1  UNL1        0.0559
     29 C         141.5425  142.7660  161.5898 C.ar    1  UNL1        0.0117
     30 C         141.2711  143.1297  160.1601 C.ar    1  UNL1        0.0559
     31 C         140.3783  144.2912  159.8381 C.ar    1  UNL1        0.2272
     32 N         139.7567  145.0891  160.9458 N.ar    1  UNL1       -0.1767
     33 O         140.1070  144.6548  158.4083 O.3     1  UNL1       -0.4561
     34 C         141.1594  145.3535  157.5994 C.3     1  UNL1        0.2542
     35 O         139.4065  145.5233  163.4832 O.3     1  UNL1       -0.4602
     36 C         137.8472  143.7430  164.5551 C.3     1  UNL1        0.0512
     37 C         138.8729  144.8277  164.7004 C.3     1  UNL1        0.2072
     38 C         143.5794  142.2951  161.2304 C.3     1  UNL1        0.0491
     39 C         144.5259  143.1427  162.0275 C.3     1  UNL1        0.0750
     40 N         144.8612  142.7667  163.4404 N.3     1  UNL1       -0.2702
     41 C         144.2064  143.4847  164.5831 C.3     1  UNL1        0.0897
     42 C         145.8513  141.6728  163.7107 C.3     1  UNL1        0.0897
@<TRIPOS>BOND
     1    36    37    1
     2    37    35    1
     3    35    27    1
     4    27    28   ar
     5    28    29   ar
     6    29    24    1
     7    24    25    1
     8    24    38    1
     9    38    39    1
    10    39    40    1
    11    40    41    1
    12    40    42    1
    13    24     1    1
    14     1     2    1
    15     2     3   ar
    16     3     4   ar
    17     4     5   ar
    18     5     6   ar
    19     6     7    1
    20     6     8   ar
    21     8     9   ar
    22     9    10   ar
    23    10    11   ar
    24    11    12   ar
    25    12    13    1
    26    13    14    1
    27     1    15    1
    28    15    16   ar
    29    16    17   ar
    30    17    18   ar
    31    18    19   ar
    32    19    22    1
    33    22    23    1
    34    19    20   ar
    35    20    21    1
    36    29    30   ar
    37    30    31   ar
    38    31    33    1
    39    33    34    1
    40    31    32   ar
    41    32    27   ar
    42    12     2   ar
    43    20    15   ar
    44    10     4   ar
    45    25    26    1
@<TRIPOS>MOLECULE
*****
 42 45 0 0 0
SMALL
GASTEIGER

@<TRIPOS>ATOM
      1 C         142.1928  140.9445  163.1773 C.3     1  UNL1        0.0799
      2 C         142.4336  141.3096  164.6122 C.ar    1  UNL1        0.0374
      3 C         141.6185  140.6688  165.6961 C.ar    1  UNL1        0.0023
      4 C         141.8593  141.0338  167.1309 C.ar    1  UNL1        0.0181
      5 C         141.0442  140.3930  168.2148 C.ar    1  UNL1        0.0082
      6 C         141.2850  140.7580  169.6497 C.ar    1  UNL1        0.0347
      7 BR        140.4699  140.1172  170.7336 Br      1  UNL1       -0.0490
      8 C         142.3410  141.7639  170.0006 C.ar    1  UNL1        0.0082
      9 C         143.1561  142.4047  168.9167 C.ar    1  UNL1        0.0197
     10 C         142.9153  142.0397  167.4818 C.ar    1  UNL1        0.0844
     11 N         143.7305  142.6805  166.3979 N.ar    1  UNL1       -0.2119
     12 C         143.4896  142.3154  164.9631 C.ar    1  UNL1        0.2211
     13 O         144.3048  142.9563  163.8791 O.3     1  UNL1       -0.4563
     14 C         144.0414  144.3793  163.4845 C.3     1  UNL1        0.2542
     15 C         141.4744  141.8996  162.2708 C.ar    1  UNL1        0.0148
     16 C         142.1737  142.4631  161.0694 C.ar    1  UNL1       -0.0014
     17 C         141.4553  143.4183  160.1629 C.ar    1  UNL1        0.0029
     18 C         140.0376  143.8098  160.4578 C.ar    1  UNL1        0.0392
     19 C         139.3384  143.2462  161.6593 C.ar    1  UNL1        0.1657
     20 C         140.0568  142.2911  162.5658 C.ar    1  UNL1        0.1702
     21 F         139.3575  141.7276  163.7671 F       1  UNL1       -0.2013
     22 O         137.9207  143.6377  161.9542 O.3     1  UNL1       -0.4692
     23 C         137.5953  144.3837  163.2143 C.3     1  UNL1        0.2526
     24 C         142.6703  139.6244  162.6490 C.3     1  UNL1        0.1162
     25 O         144.0854  140.1204  162.6886 O.3     1  UNL1       -0.3820
     26 H         144.6816  139.4225  162.3750 H       1  UNL1        0.2107
     27 C         139.0537  138.7099  161.2949 C.ar    1  UNL1        0.2271
     28 C         140.4688  139.2059  161.3345 C.ar    1  UNL1        0.0559
     29 C         141.2553  139.1283  162.6094 C.ar    1  UNL1        0.0117
     30 C         140.6268  138.5547  163.8446 C.ar    1  UNL1        0.0559
     31 C         139.2117  138.0587  163.8050 C.ar    1  UNL1        0.2272
     32 N         138.4252  138.1362  162.5301 N.ar    1  UNL1       -0.1767
     33 O         138.5832  137.4850  165.0403 O.3     1  UNL1       -0.4561
     34 C         138.1761  138.3909  166.1645 C.3     1  UNL1        0.2542
     35 O         138.2672  138.7874  160.0199 O.3     1  UNL1       -0.4602
     36 C         138.2363  141.0695  158.7785 C.3     1  UNL1        0.0512
     37 C         138.7420  139.6624  158.8979 C.3     1  UNL1        0.2072
     38 C         143.1479  138.3042  162.1206 C.3     1  UNL1        0.0491
     39 C         144.0555  138.2579  160.9273 C.3     1  UNL1        0.0750
     40 N         143.5578  138.7157  159.5883 N.3     1  UNL1       -0.2702
     41 C         142.7346  137.7936  158.7388 C.3     1  UNL1        0.0897
     42 C         143.8834  140.0957  159.0990 C.3     1  UNL1        0.0897
@<TRIPOS>BOND
     1    36    37    1
     2    37    35    1
     3    35    27    1
     4    27    28   ar
     5    28    29   ar
     6    29    24    1
     7    24    25    1
     8    24    38    1
     9    38    39    1
    10    39    40    1
    11    40    41    1
    12    40    42    1
    13    24     1    1
    14     1     2    1
    15     2     3   ar
    16     3     4   ar
    17     4     5   ar
    18     5     6   ar
    19     6     7    1
    20     6     8   ar
    21     8     9   ar
    22     9    10   ar
    23    10    11   ar
    24    11    12   ar
    25    12    13    1
    26    13    14    1
    27     1    15    1
    28    15    16   ar
    29    16    17   ar
    30    17    18   ar
    31    18    19   ar
    32    19    22    1
    33    22    23    1
    34    19    20   ar
    35    20    21    1
    36    29    30   ar
    37    30    31   ar
    38    31    33    1
    39    33    34    1
    40    31    32   ar
    41    32    27   ar
    42    12     2   ar
    43    20    15   ar
    44    10     4   ar
    45    25    26    1
@<TRIPOS>MOLECULE
*****
 42 45 0 0 0
SMALL
GASTEIGER

@<TRIPOS>ATOM
      1 C         141.8836  142.2002  163.3381 C.3     1  UNL1        0.0799
      2 C         142.2385  142.2323  164.7952 C.ar    1  UNL1        0.0374
      3 C         141.3878  141.5006  165.7906 C.ar    1  UNL1        0.0023
      4 C         141.7426  141.5327  167.2476 C.ar    1  UNL1        0.0181
      5 C         140.8919  140.8010  168.2430 C.ar    1  UNL1        0.0082
      6 C         141.2468  140.8331  169.7002 C.ar    1  UNL1        0.0347
      7 BR        140.3961  140.1014  170.6956 Br      1  UNL1       -0.0490
      8 C         142.4524  141.5970  170.1618 C.ar    1  UNL1        0.0082
      9 C         143.3031  142.3287  169.1664 C.ar    1  UNL1        0.0197
     10 C         142.9483  142.2966  167.7093 C.ar    1  UNL1        0.0844
     11 N         143.7990  143.0283  166.7139 N.ar    1  UNL1       -0.2119
     12 C         143.4441  142.9962  165.2568 C.ar    1  UNL1        0.2211
     13 O         144.2948  143.7279  164.2614 O.3     1  UNL1       -0.4563
     14 C         144.0066  145.1648  163.9412 C.3     1  UNL1        0.2542
     15 C         141.2342  143.3911  162.6979 C.ar    1  UNL1        0.0148
     16 C         140.0586  144.0491  163.3573 C.ar    1  UNL1       -0.0014
     17 C         139.4091  145.2401  162.7171 C.ar    1  UNL1        0.0029
     18 C         139.9354  145.7731  161.4175 C.ar    1  UNL1        0.0392
     19 C         141.1111  145.1150  160.7580 C.ar    1  UNL1        0.1657
     20 C         141.7605  143.9241  161.3982 C.ar    1  UNL1        0.1702
     21 F         142.9361  143.2661  160.7388 F       1  UNL1       -0.2013
     22 O         141.6373  145.6480  159.4584 O.3     1  UNL1       -0.4692
     23 C         141.3776  144.9035  158.1823 C.3     1  UNL1        0.2526
     24 C         142.1782  140.9771  162.5212 C.3     1  UNL1        0.1162
     25 O         143.6486  141.2407  162.6567 O.3     1  UNL1       -0.3820
     26 H         144.1451  140.5518  162.1879 H       1  UNL1        0.2107
     27 C         138.4358  140.0373  163.4492 C.ar    1  UNL1        0.2271
     28 C         139.9062  140.3009  163.5846 C.ar    1  UNL1        0.0559
     29 C         140.7077  140.7134  162.3858 C.ar    1  UNL1        0.0117
     30 C         140.0389  140.8623  161.0515 C.ar    1  UNL1        0.0559
     31 C         138.5685  140.5986  160.9160 C.ar    1  UNL1        0.2272
     32 N         137.7669  140.1862  162.1149 N.ar    1  UNL1       -0.1767
     33 O         137.8996  140.7475  159.5816 O.3     1  UNL1       -0.4561
     34 C         138.4949  141.6486  158.5407 C.3     1  UNL1        0.2542
     35 O         137.6342  139.6248  164.6481 O.3     1  UNL1       -0.4602
     36 C         137.6461  138.5016  166.9908 C.3     1  UNL1        0.0512
     37 C         138.3233  139.3436  165.9504 C.3     1  UNL1        0.2072
     38 C         142.4727  139.7539  161.7044 C.3     1  UNL1        0.0491
     39 C         143.0866  138.5488  162.3530 C.3     1  UNL1        0.0750
     40 N         142.7731  138.2258  163.7839 N.3     1  UNL1       -0.2702
     41 C         141.5855  137.3723  164.1173 C.3     1  UNL1        0.0897
     42 C         143.6472  138.7562  164.8814 C.3     1  UNL1        0.0897
@<TRIPOS>BOND
     1    36    37    1
     2    37    35    1
     3    35    27    1
     4    27    28   ar
     5    28    29   ar
     6    29    24    1
     7    24    25    1
     8    24    38    1
     9    38    39    1
    10    39    40    1
    11    40    41    1
    12    40    42    1
    13    24     1    1
    14     1     2    1
    15     2     3   ar
    16     3     4   ar
    17     4     5   ar
    18     5     6   ar
    19     6     7    1
    20     6     8   ar
    21     8     9   ar
    22     9    10   ar
    23    10    11   ar
    24    11    12   ar
    25    12    13    1
    26    13    14    1
    27     1    15    1
    28    15    16   ar
    29    16    17   ar
    30    17    18   ar
    31    18    19   ar
    32    19    22    1
    33    22    23    1
    34    19    20   ar
    35    20    21    1
    36    29    30   ar
    37    30    31   ar
    38    31    33    1
    39    33    34    1
    40    31    32   ar
    41    32    27   ar
    42    12     2   ar
    43    20    15   ar
    44    10     4   ar
    45    25    26    1
@<TRIPOS>MOLECULE
*****
 42 45 0 0 0
SMALL
GASTEIGER

@<TRIPOS>ATOM
      1 C         140.4068  141.3261  162.7169 C.3     1  UNL1        0.0799
      2 C         140.4364  141.7318  164.1608 C.ar    1  UNL1        0.0374
      3 C         141.0851  140.8398  165.1773 C.ar    1  UNL1        0.0023
      4 C         141.1147  141.2454  166.6211 C.ar    1  UNL1        0.0181
      5 C         141.7635  140.3534  167.6376 C.ar    1  UNL1        0.0082
      6 C         141.7931  140.7591  169.0815 C.ar    1  UNL1        0.0347
      7 BR        142.4418  139.8670  170.0980 Br      1  UNL1       -0.0490
      8 C         141.1739  142.0568  169.5087 C.ar    1  UNL1        0.0082
      9 C         140.5251  142.9488  168.4922 C.ar    1  UNL1        0.0197
     10 C         140.4955  142.5432  167.0484 C.ar    1  UNL1        0.0844
     11 N         139.8468  143.4352  166.0319 N.ar    1  UNL1       -0.2119
     12 C         139.8172  143.0295  164.5880 C.ar    1  UNL1        0.2211
     13 O         139.1684  143.9216  163.5715 O.3     1  UNL1       -0.4563
     14 C         137.6854  143.8577  163.3552 C.3     1  UNL1        0.2542
     15 C         140.8330  142.2972  161.6562 C.ar    1  UNL1        0.0148
     16 C         142.2174  142.8741  161.6801 C.ar    1  UNL1       -0.0014
     17 C         142.6437  143.8453  160.6193 C.ar    1  UNL1        0.0029
     18 C         141.6855  144.2394  159.5346 C.ar    1  UNL1        0.0392
     19 C         140.3010  143.6624  159.5107 C.ar    1  UNL1        0.1657
     20 C         139.8748  142.6914  160.5715 C.ar    1  UNL1        0.1702
     21 F         138.4905  142.1144  160.5476 F       1  UNL1       -0.2013
     22 O         139.3429  144.0566  158.4260 O.3     1  UNL1       -0.4692
     23 C         139.3180  143.2949  157.1340 C.3     1  UNL1        0.2526
     24 C         139.9510  139.9493  162.3340 C.3     1  UNL1        0.1162
     25 O         138.5637  140.2791  162.7995 O.3     1  UNL1       -0.3820
     26 H         137.9868  139.5108  162.6664 H       1  UNL1        0.2107
     27 C         143.8583  139.2563  162.3856 C.ar    1  UNL1        0.2271
     28 C         142.4710  139.5860  162.8511 C.ar    1  UNL1        0.0559
     29 C         141.3383  139.6196  161.8684 C.ar    1  UNL1        0.0117
     30 C         141.5928  139.3233  160.4202 C.ar    1  UNL1        0.0559
     31 C         142.9801  138.9936  159.9547 C.ar    1  UNL1        0.2272
     32 N         144.1128  138.9600  160.9373 N.ar    1  UNL1       -0.1767
     33 O         143.2346  138.6974  158.5063 O.3     1  UNL1       -0.4561
     34 C         142.5777  137.5161  157.8557 C.3     1  UNL1        0.2542
     35 O         144.9911  139.2227  163.3683 O.3     1  UNL1       -0.4602
     36 C         145.6890  141.7219  163.4979 C.3     1  UNL1        0.0512
     37 C         145.3144  140.4407  164.1820 C.3     1  UNL1        0.2072
     38 C         139.4952  138.5725  161.9510 C.3     1  UNL1        0.0491
     39 C         138.8724  137.6756  162.9793 C.3     1  UNL1        0.0750
     40 N         139.4305  137.6291  164.3708 N.3     1  UNL1       -0.2702
     41 C         138.6097  138.1230  165.5251 C.3     1  UNL1        0.0897
     42 C         140.8095  137.0887  164.6082 C.3     1  UNL1        0.0897
@<TRIPOS>BOND
     1    36    37    1
     2    37    35    1
     3    35    27    1
     4    27    28   ar
     5    28    29   ar
     6    29    24    1
     7    24    25    1
     8    24    38    1
     9    38    39    1
    10    39    40    1
    11    40    41    1
    12    40    42    1
    13    24     1    1
    14     1     2    1
    15     2     3   ar
    16     3     4   ar
    17     4     5   ar
    18     5     6   ar
    19     6     7    1
    20     6     8   ar
    21     8     9   ar
    22     9    10   ar
    23    10    11   ar
    24    11    12   ar
    25    12    13    1
    26    13    14    1
    27     1    15    1
    28    15    16   ar
    29    16    17   ar
    30    17    18   ar
    31    18    19   ar
    32    19    22    1
    33    22    23    1
    34    19    20   ar
    35    20    21    1
    36    29    30   ar
    37    30    31   ar
    38    31    33    1
    39    33    34    1
    40    31    32   ar
    41    32    27   ar
    42    12     2   ar
    43    20    15   ar
    44    10     4   ar
    45    25    26    1
@<TRIPOS>MOLECULE
*****
 42 45 0 0 0
SMALL
GASTEIGER

@<TRIPOS>ATOM
      1 C         141.6046  141.4046  163.3410 C.3     1  UNL1        0.0799
      2 C         142.0512  141.6587  164.7502 C.ar    1  UNL1        0.0374
      3 C         141.2930  141.0588  165.8970 C.ar    1  UNL1        0.0023
      4 C         141.7395  141.3129  167.3063 C.ar    1  UNL1        0.0181
      5 C         140.9813  140.7129  168.4530 C.ar    1  UNL1        0.0082
      6 C         141.4279  140.9671  169.8623 C.ar    1  UNL1        0.0347
      7 BR        140.6697  140.3671  171.0091 Br      1  UNL1       -0.0490
      8 C         142.6327  141.8212  170.1248 C.ar    1  UNL1        0.0082
      9 C         143.3910  142.4212  168.9780 C.ar    1  UNL1        0.0197
     10 C         142.9444  142.1670  167.5687 C.ar    1  UNL1        0.0844
     11 N         143.7026  142.7670  166.4220 N.ar    1  UNL1       -0.2119
     12 C         143.2560  142.5128  165.0127 C.ar    1  UNL1        0.2211
     13 O         144.0142  143.1128  163.8659 O.3     1  UNL1       -0.4563
     14 C         143.9374  144.5882  163.6060 C.3     1  UNL1        0.2542
     15 C         142.4377  140.5496  162.4328 C.ar    1  UNL1        0.0148
     16 C         142.8236  139.1626  162.8540 C.ar    1  UNL1       -0.0014
     17 C         143.6568  138.3075  161.9458 C.ar    1  UNL1        0.0029
     18 C         144.1040  138.8394  160.6165 C.ar    1  UNL1        0.0392
     19 C         143.7180  140.2264  160.1954 C.ar    1  UNL1        0.1657
     20 C         142.8849  141.0815  161.1035 C.ar    1  UNL1        0.1702
     21 F         142.4990  142.4684  160.6823 F       1  UNL1       -0.2013
     22 O         144.1653  140.7584  158.8661 O.3     1  UNL1       -0.4692
     23 C         143.2818  140.6094  157.6630 C.3     1  UNL1        0.2526
     24 C         140.3248  142.0055  162.8399 C.3     1  UNL1        0.1162
     25 O         140.8834  143.3799  163.0613 O.3     1  UNL1       -0.3820
     26 H         140.2235  144.0425  162.8036 H       1  UNL1        0.2107
     27 C         138.8088  138.4112  163.5701 C.ar    1  UNL1        0.2271
     28 C         139.3674  139.7856  163.7916 C.ar    1  UNL1        0.0559
     29 C         139.7661  140.6311  162.6185 C.ar    1  UNL1        0.0117
     30 C         139.6062  140.1022  161.2240 C.ar    1  UNL1        0.0559
     31 C         139.0476  138.7278  161.0026 C.ar    1  UNL1        0.2272
     32 N         138.6489  137.8824  162.1756 N.ar    1  UNL1       -0.1767
     33 O         138.8877  138.1990  159.6080 O.3     1  UNL1       -0.4561
     34 C         139.9671  138.4260  158.5914 C.3     1  UNL1        0.2542
     35 O         138.4101  137.5657  164.7433 O.3     1  UNL1       -0.4602
     36 C         137.3657  137.9617  167.0890 C.3     1  UNL1        0.0512
     37 C         138.5122  138.1173  166.1345 C.3     1  UNL1        0.2072
     38 C         139.0450  142.6064  162.3389 C.3     1  UNL1        0.0491
     39 C         139.0457  143.9826  161.7422 C.3     1  UNL1        0.0750
     40 N         139.6514  144.2132  160.3894 N.3     1  UNL1       -0.2702
     41 C         139.3817  143.2489  159.2726 C.3     1  UNL1        0.0897
     42 C         140.5268  145.4081  160.1535 C.3     1  UNL1        0.0897
@<TRIPOS>BOND
     1    36    37    1
     2    37    35    1
     3    35    27    1
     4    27    28   ar
     5    28    29   ar
     6    29    24    1
     7    24    25    1
     8    24    38    1
     9    38    39    1
    10    39    40    1
    11    40    41    1
    12    40    42    1
    13    24     1    1
    14     1     2    1
    15     2     3   ar
    16     3     4   ar
    17     4     5   ar
    18     5     6   ar
    19     6     7    1
    20     6     8   ar
    21     8     9   ar
    22     9    10   ar
    23    10    11   ar
    24    11    12   ar
    25    12    13    1
    26    13    14    1
    27     1    15    1
    28    15    16   ar
    29    16    17   ar
    30    17    18   ar
    31    18    19   ar
    32    19    22    1
    33    22    23    1
    34    19    20   ar
    35    20    21    1
    36    29    30   ar
    37    30    31   ar
    38    31    33    1
    39    33    34    1
    40    31    32   ar
    41    32    27   ar
    42    12     2   ar
    43    20    15   ar
    44    10     4   ar
    45    25    26    1
@<TRIPOS>MOLECULE
*****
 42 45 0 0 0
SMALL
GASTEIGER

@<TRIPOS>ATOM
      1 C         140.3958  141.3234  161.6130 C.3     1  UNL1        0.0799
      2 C         140.1052  140.9271  163.0303 C.ar    1  UNL1        0.0374
      3 C         141.1046  141.2180  164.1103 C.ar    1  UNL1        0.0023
      4 C         140.8141  140.8218  165.5275 C.ar    1  UNL1        0.0181
      5 C         141.8136  141.1127  166.6076 C.ar    1  UNL1        0.0082
      6 C         141.5230  140.7164  168.0248 C.ar    1  UNL1        0.0347
      7 BR        142.5224  141.0073  169.1049 Br      1  UNL1       -0.0490
      8 C         140.2330  140.0293  168.3620 C.ar    1  UNL1        0.0082
      9 C         139.2335  139.7384  167.2820 C.ar    1  UNL1        0.0197
     10 C         139.5241  140.1346  165.8648 C.ar    1  UNL1        0.0844
     11 N         138.5246  139.8438  164.7847 N.ar    1  UNL1       -0.2119
     12 C         138.8152  140.2400  163.3675 C.ar    1  UNL1        0.2211
     13 O         137.8157  139.9492  162.2874 O.3     1  UNL1       -0.4563
     14 C         137.6544  138.5497  161.7720 C.3     1  UNL1        0.2542
     15 C         140.7268  140.2740  160.5937 C.ar    1  UNL1        0.0148
     16 C         141.9625  139.4386  160.7514 C.ar    1  UNL1       -0.0014
     17 C         142.2936  138.3891  159.7320 C.ar    1  UNL1        0.0029
     18 C         141.3888  138.1751  158.5549 C.ar    1  UNL1        0.0392
     19 C         140.1530  139.0106  158.3972 C.ar    1  UNL1        0.1657
     20 C         139.8220  140.0600  159.4166 C.ar    1  UNL1        0.1702
     21 F         138.5862  140.8954  159.2588 F       1  UNL1       -0.2013
     22 O         139.2482  138.7965  157.2201 O.3     1  UNL1       -0.4692
     23 C         139.5273  137.6853  156.2519 C.3     1  UNL1        0.2526
     24 C         140.3553  142.7691  161.2152 C.3     1  UNL1        0.1162
     25 O         138.8877  142.8126  161.5222 O.3     1  UNL1       -0.3820
     26 H         138.5468  143.7034  161.3458 H       1  UNL1        0.2107
     27 C         144.2864  142.5543  161.7155 C.ar    1  UNL1        0.2271
     28 C         142.8188  142.5977  162.0225 C.ar    1  UNL1        0.0559
     29 C         141.8230  142.7257  160.9082 C.ar    1  UNL1        0.0117
     30 C         142.2947  142.8102  159.4868 C.ar    1  UNL1        0.0559
     31 C         143.7623  142.7668  159.1798 C.ar    1  UNL1        0.2272
     32 N         144.7582  142.6388  160.2942 N.ar    1  UNL1       -0.1767
     33 O         144.2340  142.8514  157.7584 O.3     1  UNL1       -0.4561
     34 C         145.5163  142.1869  157.3529 C.3     1  UNL1        0.2542
     35 O         145.2823  142.4263  162.8300 O.3     1  UNL1       -0.4602
     36 C         144.5287  143.3282  165.1470 C.3     1  UNL1        0.0512
     37 C         144.8111  142.1740  164.2315 C.3     1  UNL1        0.2072
     38 C         140.3149  144.2149  160.8173 C.3     1  UNL1        0.0491
     39 C         139.8726  145.2527  161.8059 C.3     1  UNL1        0.0750
     40 N         140.2817  145.1406  163.2447 N.3     1  UNL1       -0.2702
     41 C         141.7017  145.4124  163.6440 C.3     1  UNL1        0.0897
     42 C         139.2707  144.7566  164.2841 C.3     1  UNL1        0.0897
@<TRIPOS>BOND
     1    36    37    1
     2    37    35    1
     3    35    27    1
     4    27    28   ar
     5    28    29   ar
     6    29    24    1
     7    24    25    1
     8    24    38    1
     9    38    39    1
    10    39    40    1
    11    40    41    1
    12    40    42    1
    13    24     1    1
    14     1     2    1
    15     2     3   ar
    16     3     4   ar
    17     4     5   ar
    18     5     6   ar
    19     6     7    1
    20     6     8   ar
    21     8     9   ar
    22     9    10   ar
    23    10    11   ar
    24    11    12   ar
    25    12    13    1
    26    13    14    1
    27     1    15    1
    28    15    16   ar
    29    16    17   ar
    30    17    18   ar
    31    18    19   ar
    32    19    22    1
    33    22    23    1
    34    19    20   ar
    35    20    21    1
    36    29    30   ar
    37    30    31   ar
    38    31    33    1
    39    33    34    1
    40    31    32   ar
    41    32    27   ar
    42    12     2   ar
    43    20    15   ar
    44    10     4   ar
    45    25    26    1
@<TRIPOS>MOLECULE
*****
 42 45 0 0 0
SMALL
GASTEIGER

@<TRIPOS>ATOM
      1 C         141.5165  140.5996  161.3003 C.3     1  UNL1        0.0799
      2 C         141.8604  140.2342  162.7139 C.ar    1  UNL1        0.0374
      3 C         141.6057  141.2103  163.8240 C.ar    1  UNL1        0.0023
      4 C         141.9496  140.8450  165.2376 C.ar    1  UNL1        0.0181
      5 C         141.6950  141.8211  166.3477 C.ar    1  UNL1        0.0082
      6 C         142.0389  141.4557  167.7613 C.ar    1  UNL1        0.0347
      7 BR        141.7843  142.4318  168.8714 Br      1  UNL1       -0.0490
      8 C         142.6374  140.1142  168.0648 C.ar    1  UNL1        0.0082
      9 C         142.8920  139.1380  166.9547 C.ar    1  UNL1        0.0197
     10 C         142.5482  139.5034  165.5411 C.ar    1  UNL1        0.0844
     11 N         142.8028  138.5273  164.4310 N.ar    1  UNL1       -0.2119
     12 C         142.4589  138.8927  163.0174 C.ar    1  UNL1        0.2211
     13 O         142.7135  137.9166  161.9073 O.3     1  UNL1       -0.4563
     14 C         144.1038  137.7317  161.3753 C.3     1  UNL1        0.2542
     15 C         142.5907  141.0682  160.3642 C.ar    1  UNL1        0.0148
     16 C         143.3330  142.3398  160.6508 C.ar    1  UNL1       -0.0014
     17 C         144.4073  142.8084  159.7147 C.ar    1  UNL1        0.0029
     18 C         144.7394  142.0054  158.4920 C.ar    1  UNL1        0.0392
     19 C         143.9971  140.7337  158.2055 C.ar    1  UNL1        0.1657
     20 C         142.9228  140.2652  159.1416 C.ar    1  UNL1        0.1702
     21 F         142.1806  138.9936  158.8550 F       1  UNL1       -0.2013
     22 O         144.3292  139.9307  156.9828 O.3     1  UNL1       -0.4692
     23 C         145.3337  140.4477  155.9960 C.3     1  UNL1        0.2526
     24 C         140.0982  140.4965  160.8229 C.3     1  UNL1        0.1162
     25 O         140.1490  139.0071  160.9939 O.3     1  UNL1       -0.3820
     26 H         139.2952  138.6232  160.7397 H       1  UNL1        0.2107
     27 C         139.9690  144.3680  161.6857 C.ar    1  UNL1        0.2271
     28 C         140.0198  142.8786  161.8568 C.ar    1  UNL1        0.0559
     29 C         140.0475  141.9858  160.6518 C.ar    1  UNL1        0.0117
     30 C         140.0244  142.5823  159.2757 C.ar    1  UNL1        0.0559
     31 C         139.9737  144.0717  159.1046 C.ar    1  UNL1        0.2272
     32 N         139.9460  144.9645  160.3096 N.ar    1  UNL1       -0.1767
     33 O         139.9507  144.6682  157.7285 O.3     1  UNL1       -0.4561
     34 C         140.8078  145.8578  157.4123 C.3     1  UNL1        0.2542
     35 O         139.9413  145.2608  162.8908 O.3     1  UNL1       -0.4602
     36 C         138.8001  144.7741  165.1734 C.3     1  UNL1        0.0512
     37 C         139.9900  144.6653  164.2666 C.3     1  UNL1        0.2072
     38 C         138.6800  140.3933  160.3454 C.3     1  UNL1        0.0491
     39 C         137.6046  139.9309  161.2833 C.3     1  UNL1        0.0750
     40 N         137.6953  140.2530  162.7455 N.3     1  UNL1       -0.2702
     41 C         137.1963  141.5726  163.2552 C.3     1  UNL1        0.0897
     42 C         138.2849  139.2556  163.6981 C.3     1  UNL1        0.0897
@<TRIPOS>BOND
     1    36    37    1
     2    37    35    1
     3    35    27    1
     4    27    28   ar
     5    28    29   ar
     6    29    24    1
     7    24    25    1
     8    24    38    1
     9    38    39    1
    10    39    40    1
    11    40    41    1
    12    40    42    1
    13    24     1    1
    14     1     2    1
    15     2     3   ar
    16     3     4   ar
    17     4     5   ar
    18     5     6   ar
    19     6     7    1
    20     6     8   ar
    21     8     9   ar
    22     9    10   ar
    23    10    11   ar
    24    11    12   ar
    25    12    13    1
    26    13    14    1
    27     1    15    1
    28    15    16   ar
    29    16    17   ar
    30    17    18   ar
    31    18    19   ar
    32    19    22    1
    33    22    23    1
    34    19    20   ar
    35    20    21    1
    36    29    30   ar
    37    30    31   ar
    38    31    33    1
    39    33    34    1
    40    31    32   ar
    41    32    27   ar
    42    12     2   ar
    43    20    15   ar
    44    10     4   ar
    45    25    26    1
