@<TRIPOS>MOLECULE
*****
 35 38 0 0 0
SMALL
GASTEIGER

@<TRIPOS>ATOM
      1 C         140.5300  144.6881  157.7918 C.ar    1  UNL1        0.1194
      2 C         139.6542  143.6841  158.4810 C.ar    1  UNL1        0.1452
      3 N         138.4930  143.0759  157.7519 N.pl3   1  UNL1       -0.3415
      4 N         139.9397  143.2883  159.8994 N.ar    1  UNL1       -0.1940
      5 C         141.1009  143.8964  160.6286 C.ar    1  UNL1        0.2554
      6 N         141.9767  144.9004  159.9393 N.ar    1  UNL1       -0.1940
      7 C         141.6912  145.2963  158.5209 C.ar    1  UNL1        0.1452
      8 N         142.5670  146.3002  157.8317 N.pl3   1  UNL1       -0.3415
      9 H         138.3056  143.3357  156.8210 H       1  UNL1        0.1438
     10 H         137.9182  142.4170  158.2043 H       1  UNL1        0.1438
     11 H         143.3291  146.6994  158.3103 H       1  UNL1        0.1438
     12 H         142.3796  146.5601  156.9008 H       1  UNL1        0.1438
     13 N         141.3864  143.5005  162.0470 N.ar    1  UNL1       -0.1967
     14 N         140.4140  143.5472  163.1881 N.ar    1  UNL1       -0.1666
     15 C         141.1211  143.0641  164.4196 C.ar    1  UNL1        0.0849
     16 C         142.5305  142.7188  164.0396 C.ar    1  UNL1        0.0334
     17 C         143.6857  142.1936  164.8393 C.ar    1  UNL1        0.0027
     18 C         145.0049  141.9382  164.1726 C.ar    1  UNL1        0.0001
     19 C         145.1689  142.2080  162.7062 C.ar    1  UNL1        0.0015
     20 C         144.0136  142.7332  161.9065 C.ar    1  UNL1        0.0193
     21 C         142.6945  142.9886  162.5731 C.ar    1  UNL1        0.0870
     22 C         140.5237  142.9467  165.7905 C.3     1  UNL1        0.0747
     23 C         139.8309  141.6811  166.2010 C.ar    1  UNL1       -0.0056
     24 C         138.9224  140.9770  165.2372 C.ar    1  UNL1       -0.0031
     25 C         138.2296  139.7114  165.6476 C.ar    1  UNL1       -0.0003
     26 C         138.4453  139.1501  167.0218 C.ar    1  UNL1        0.0008
     27 C         139.3538  139.8543  167.9855 C.ar    1  UNL1        0.0111
     28 C         140.0466  141.1198  167.5751 C.ar    1  UNL1        0.0541
     29 CL        140.9551  141.8240  168.5389 Cl      1  UNL1       -0.0826
     30 C         139.5762  146.3945  156.0806 C.2     1  UNL1        0.4090
     31 O         139.1934  147.3092  157.2061 O.2     1  UNL1       -0.2258
     32 N         140.2444  145.0839  156.3734 N.am    1  UNL1       -0.2181
     33 C         140.6272  144.1692  155.2479 C.3     1  UNL1        0.1237
     34 C         139.7113  148.1401  154.1610 C.3     1  UNL1        0.2574
     35 O         139.2906  146.7904  154.6622 O.3     1  UNL1       -0.4302
@<TRIPOS>BOND
     1    34    35    1
     2    35    30    1
     3    30    31    2
     4    30    32   am
     5    32    33    1
     6    32     1    1
     7     1     2   ar
     8     2     3    1
     9     2     4   ar
    10     4     5   ar
    11     5    13    1
    12    13    14   ar
    13    14    15   ar
    14    15    22    1
    15    22    23    1
    16    23    24   ar
    17    24    25   ar
    18    25    26   ar
    19    26    27   ar
    20    27    28   ar
    21    28    29    1
    22    15    16   ar
    23    16    17   ar
    24    17    18   ar
    25    18    19   ar
    26    19    20   ar
    27    20    21   ar
    28     5     6   ar
    29     6     7   ar
    30     7     8    1
    31     7     1   ar
    32    21    13   ar
    33    28    23   ar
    34    21    16   ar
    35     3     9    1
    36     3    10    1
    37     8    11    1
    38     8    12    1
@<TRIPOS>MOLECULE
*****
 35 38 0 0 0
SMALL
GASTEIGER

@<TRIPOS>ATOM
      1 C         140.6065  144.7409  157.6334 C.ar    1  UNL1        0.1194
      2 C         139.7090  143.7674  158.3382 C.ar    1  UNL1        0.1452
      3 N         138.5900  143.1033  157.5920 N.pl3   1  UNL1       -0.3415
      4 N         139.9305  143.4579  159.7891 N.ar    1  UNL1       -0.1940
      5 C         141.0495  144.1219  160.5353 C.ar    1  UNL1        0.2554
      6 N         141.9470  145.0955  159.8305 N.ar    1  UNL1       -0.1940
      7 C         141.7255  145.4050  158.3796 C.ar    1  UNL1        0.1452
      8 N         142.6230  146.3786  157.6749 N.pl3   1  UNL1       -0.3415
      9 H         138.4446  143.3064  156.6397 H       1  UNL1        0.1438
     10 H         138.0009  142.4643  158.0545 H       1  UNL1        0.1438
     11 H         143.3575  146.8144  158.1647 H       1  UNL1        0.1438
     12 H         142.4777  146.5817  156.7226 H       1  UNL1        0.1438
     13 N         141.2710  143.8125  161.9862 N.ar    1  UNL1       -0.1967
     14 N         142.5570  143.3465  162.6020 N.ar    1  UNL1       -0.1666
     15 C         142.3261  143.1607  164.0724 C.ar    1  UNL1        0.0849
     16 C         140.8975  143.5119  164.3654 C.ar    1  UNL1        0.0334
     17 C         140.1063  143.5169  165.6397 C.ar    1  UNL1        0.0027
     18 C         138.6629  143.9247  165.6246 C.ar    1  UNL1        0.0001
     19 C         138.0108  144.3275  164.3352 C.ar    1  UNL1        0.0015
     20 C         138.8020  144.3225  163.0610 C.ar    1  UNL1        0.0193
     21 C         140.2454  143.9147  163.0761 C.ar    1  UNL1        0.0870
     22 C         143.3450  142.7039  165.0741 C.3     1  UNL1        0.0747
     23 C         143.3955  141.2632  165.4889 C.ar    1  UNL1       -0.0056
     24 C         142.6183  140.7995  166.6851 C.ar    1  UNL1       -0.0031
     25 C         142.6687  139.3590  167.1000 C.ar    1  UNL1       -0.0003
     26 C         143.4964  138.3821  166.3186 C.ar    1  UNL1        0.0008
     27 C         144.2736  138.8458  165.1224 C.ar    1  UNL1        0.0111
     28 C         144.2232  140.2863  164.7075 C.ar    1  UNL1        0.0541
     29 CL        145.0004  140.7500  163.5113 Cl      1  UNL1       -0.0826
     30 C         139.6880  146.3174  155.7839 C.2     1  UNL1        0.4090
     31 O         139.2126  147.2749  156.8361 O.2     1  UNL1       -0.2258
     32 N         140.3850  145.0504  156.1825 N.am    1  UNL1       -0.2181
     33 C         140.8604  144.0929  155.1303 C.3     1  UNL1        0.1237
     34 C         140.2864  147.6864  153.6583 C.3     1  UNL1        0.2574
     35 O         139.4664  146.6269  154.3329 O.3     1  UNL1       -0.4302
@<TRIPOS>BOND
     1    34    35    1
     2    35    30    1
     3    30    31    2
     4    30    32   am
     5    32    33    1
     6    32     1    1
     7     1     2   ar
     8     2     3    1
     9     2     4   ar
    10     4     5   ar
    11     5    13    1
    12    13    14   ar
    13    14    15   ar
    14    15    22    1
    15    22    23    1
    16    23    24   ar
    17    24    25   ar
    18    25    26   ar
    19    26    27   ar
    20    27    28   ar
    21    28    29    1
    22    15    16   ar
    23    16    17   ar
    24    17    18   ar
    25    18    19   ar
    26    19    20   ar
    27    20    21   ar
    28     5     6   ar
    29     6     7   ar
    30     7     8    1
    31     7     1   ar
    32    21    13   ar
    33    28    23   ar
    34    21    16   ar
    35     3     9    1
    36     3    10    1
    37     8    11    1
    38     8    12    1
@<TRIPOS>MOLECULE
*****
 35 38 0 0 0
SMALL
GASTEIGER

@<TRIPOS>ATOM
      1 C         140.6041  144.7681  157.6174 C.ar    1  UNL1        0.1194
      2 C         141.7307  145.4179  158.3648 C.ar    1  UNL1        0.1452
      3 N         142.6386  146.3833  157.6621 N.pl3   1  UNL1       -0.3415
      4 N         141.9493  145.1024  159.8148 N.ar    1  UNL1       -0.1940
      5 C         141.0415  144.1370  160.5175 C.ar    1  UNL1        0.2554
      6 N         139.9149  143.4872  159.7701 N.ar    1  UNL1       -0.1940
      7 C         139.6962  143.8027  158.3200 C.ar    1  UNL1        0.1452
      8 N         138.5697  143.1529  157.5728 N.pl3   1  UNL1       -0.3415
      9 H         142.4950  146.5904  156.7104 H       1  UNL1        0.1438
     10 H         143.3780  146.8098  158.1526 H       1  UNL1        0.1438
     11 H         137.9738  142.5192  158.0340 H       1  UNL1        0.1438
     12 H         138.4261  143.3599  156.6210 H       1  UNL1        0.1438
     13 N         141.2602  143.8215  161.9675 N.ar    1  UNL1       -0.1967
     14 N         142.5491  143.3683  162.5866 N.ar    1  UNL1       -0.1666
     15 C         142.3138  143.1705  164.0548 C.ar    1  UNL1        0.0849
     16 C         140.8794  143.5014  164.3431 C.ar    1  UNL1        0.0334
     17 C         140.0821  143.4883  165.6135 C.ar    1  UNL1        0.0027
     18 C         138.6337  143.8776  165.5940 C.ar    1  UNL1        0.0001
     19 C         137.9825  144.2799  164.3040 C.ar    1  UNL1        0.0015
     20 C         138.7798  144.2930  163.0335 C.ar    1  UNL1        0.0193
     21 C         140.2282  143.9037  163.0531 C.ar    1  UNL1        0.0870
     22 C         143.3337  142.7207  165.0585 C.3     1  UNL1        0.0747
     23 C         143.3712  141.2872  165.4989 C.ar    1  UNL1       -0.0056
     24 C         142.6002  140.8546  166.7107 C.ar    1  UNL1       -0.0031
     25 C         142.6376  139.4212  167.1512 C.ar    1  UNL1       -0.0003
     26 C         143.4460  138.4205  166.3799 C.ar    1  UNL1        0.0008
     27 C         144.2170  138.8531  165.1681 C.ar    1  UNL1        0.0111
     28 C         144.1796  140.2865  164.7276 C.ar    1  UNL1        0.0541
     29 CL        144.9506  140.7191  163.5158 Cl      1  UNL1       -0.0826
     30 C         139.6886  146.3519  155.7727 C.2     1  UNL1        0.4090
     31 O         139.2103  147.3046  156.8280 O.2     1  UNL1       -0.2258
     32 N         140.3855  145.0837  156.1673 N.am    1  UNL1       -0.2181
     33 C         140.8637  144.1310  155.1120 C.3     1  UNL1        0.1237
     34 C         140.3775  147.6332  153.6200 C.3     1  UNL1        0.2574
     35 O         139.4699  146.6676  154.3226 O.3     1  UNL1       -0.4302
@<TRIPOS>BOND
     1    34    35    1
     2    35    30    1
     3    30    31    2
     4    30    32   am
     5    32    33    1
     6    32     1    1
     7     1     2   ar
     8     2     3    1
     9     2     4   ar
    10     4     5   ar
    11     5    13    1
    12    13    14   ar
    13    14    15   ar
    14    15    22    1
    15    22    23    1
    16    23    24   ar
    17    24    25   ar
    18    25    26   ar
    19    26    27   ar
    20    27    28   ar
    21    28    29    1
    22    15    16   ar
    23    16    17   ar
    24    17    18   ar
    25    18    19   ar
    26    19    20   ar
    27    20    21   ar
    28     5     6   ar
    29     6     7   ar
    30     7     8    1
    31     7     1   ar
    32    21    13   ar
    33    28    23   ar
    34    21    16   ar
    35     3     9    1
    36     3    10    1
    37     8    11    1
    38     8    12    1
@<TRIPOS>MOLECULE
*****
 35 38 0 0 0
SMALL
GASTEIGER

@<TRIPOS>ATOM
      1 C         143.5281  141.9661  158.8497 C.ar    1  UNL1        0.1194
      2 C         143.5614  140.8305  159.8291 C.ar    1  UNL1        0.1452
      3 N         144.0979  139.4940  159.4097 N.pl3   1  UNL1       -0.3415
      4 N         143.0581  141.0314  161.2278 N.ar    1  UNL1       -0.1940
      5 C         142.5216  142.3678  161.6472 C.ar    1  UNL1        0.2554
      6 N         142.4883  143.5035  160.6677 N.ar    1  UNL1       -0.1940
      7 C         142.9915  143.3026  159.2690 C.ar    1  UNL1        0.1452
      8 N         142.9582  144.4383  158.2897 N.pl3   1  UNL1       -0.3415
      9 H         144.4282  139.3621  158.4917 H       1  UNL1        0.1438
     10 H         144.1197  138.7486  160.0526 H       1  UNL1        0.1438
     11 H         142.6061  145.3155  158.5650 H       1  UNL1        0.1438
     12 H         143.2885  144.3065  157.3717 H       1  UNL1        0.1438
     13 N         142.0184  142.5687  163.0459 N.ar    1  UNL1       -0.1967
     14 N         142.6827  142.0834  164.3001 N.ar    1  UNL1       -0.1666
     15 C         141.8373  142.5050  165.4653 C.ar    1  UNL1        0.0849
     16 C         140.6506  143.2508  164.9312 C.ar    1  UNL1        0.0334
     17 C         139.4825  143.8992  165.6132 C.ar    1  UNL1        0.0027
     18 C         138.4263  144.5869  164.8000 C.ar    1  UNL1        0.0001
     19 C         138.5382  144.6263  163.3046 C.ar    1  UNL1        0.0015
     20 C         139.7063  143.9780  162.6226 C.ar    1  UNL1        0.0193
     21 C         140.7625  143.2902  163.4359 C.ar    1  UNL1        0.0870
     22 C         142.1277  142.2291  166.9108 C.3     1  UNL1        0.0747
     23 C         141.0803  141.5972  167.7790 C.ar    1  UNL1       -0.0056
     24 C         140.2999  140.4191  167.2758 C.ar    1  UNL1       -0.0031
     25 C         139.2525  139.7871  168.1438 C.ar    1  UNL1       -0.0003
     26 C         138.9854  140.3333  169.5151 C.ar    1  UNL1        0.0008
     27 C         139.7658  141.5114  170.0182 C.ar    1  UNL1        0.0111
     28 C         140.8132  142.1433  169.1502 C.ar    1  UNL1        0.0541
     29 CL        141.5935  143.3214  169.6534 Cl      1  UNL1       -0.0826
     30 C         145.4319  142.1656  157.0931 C.2     1  UNL1        0.4090
     31 O         146.3292  142.7668  158.1340 O.2     1  UNL1       -0.2258
     32 N         144.0313  141.7652  157.4510 N.am    1  UNL1       -0.2181
     33 C         143.1340  141.1640  156.4101 C.3     1  UNL1        0.1237
     34 C         146.9908  142.8743  155.1392 C.3     1  UNL1        0.2574
     35 O         145.9352  141.9647  155.6944 O.3     1  UNL1       -0.4302
@<TRIPOS>BOND
     1    34    35    1
     2    35    30    1
     3    30    31    2
     4    30    32   am
     5    32    33    1
     6    32     1    1
     7     1     2   ar
     8     2     3    1
     9     2     4   ar
    10     4     5   ar
    11     5    13    1
    12    13    14   ar
    13    14    15   ar
    14    15    22    1
    15    22    23    1
    16    23    24   ar
    17    24    25   ar
    18    25    26   ar
    19    26    27   ar
    20    27    28   ar
    21    28    29    1
    22    15    16   ar
    23    16    17   ar
    24    17    18   ar
    25    18    19   ar
    26    19    20   ar
    27    20    21   ar
    28     5     6   ar
    29     6     7   ar
    30     7     8    1
    31     7     1   ar
    32    21    13   ar
    33    28    23   ar
    34    21    16   ar
    35     3     9    1
    36     3    10    1
    37     8    11    1
    38     8    12    1
@<TRIPOS>MOLECULE
*****
 35 38 0 0 0
SMALL
GASTEIGER

@<TRIPOS>ATOM
      1 C         143.4918  142.2538  158.6499 C.ar    1  UNL1        0.1194
      2 C         142.9449  143.5797  159.0892 C.ar    1  UNL1        0.1452
      3 N         142.9285  144.7373  158.1354 N.pl3   1  UNL1       -0.3415
      4 N         142.4144  143.7480  160.4821 N.ar    1  UNL1       -0.1940
      5 C         142.4308  142.5905  161.4359 C.ar    1  UNL1        0.2554
      6 N         142.9777  141.2645  160.9966 N.ar    1  UNL1       -0.1940
      7 C         143.5082  141.0962  159.6037 C.ar    1  UNL1        0.1452
      8 N         144.0551  139.7703  159.1646 N.pl3   1  UNL1       -0.3415
      9 H         143.2767  144.6269  157.2212 H       1  UNL1        0.1438
     10 H         142.5695  145.6076  158.4237 H       1  UNL1        0.1438
     11 H         144.0658  139.0106  159.7906 H       1  UNL1        0.1438
     12 H         144.4032  139.6598  158.2503 H       1  UNL1        0.1438
     13 N         141.9003  142.7587  162.8288 N.ar    1  UNL1       -0.1967
     14 N         142.6003  142.3573  164.0933 N.ar    1  UNL1       -0.1666
     15 C         141.7093  142.7084  165.2477 C.ar    1  UNL1        0.0849
     16 C         140.4587  143.3269  164.6968 C.ar    1  UNL1        0.0334
     17 C         139.2277  143.8658  165.3632 C.ar    1  UNL1        0.0027
     18 C         138.1148  144.4358  164.5347 C.ar    1  UNL1        0.0001
     19 C         138.2329  144.4668  163.0397 C.ar    1  UNL1        0.0015
     20 C         139.4639  143.9280  162.3732 C.ar    1  UNL1        0.0193
     21 C         140.5768  143.3580  163.2018 C.ar    1  UNL1        0.0870
     22 C         142.0151  142.4810  166.6985 C.3     1  UNL1        0.0747
     23 C         141.0490  141.7214  167.5586 C.ar    1  UNL1       -0.0056
     24 C         140.2755  140.5723  166.9830 C.ar    1  UNL1       -0.0031
     25 C         139.3095  139.8126  167.8429 C.ar    1  UNL1       -0.0003
     26 C         139.1169  140.2021  169.2786 C.ar    1  UNL1        0.0008
     27 C         139.8903  141.3511  169.8543 C.ar    1  UNL1        0.0111
     28 C         140.8564  142.1108  168.9943 C.ar    1  UNL1        0.0541
     29 CL        141.6299  143.2599  169.5700 Cl      1  UNL1       -0.0826
     30 C         145.4700  142.3517  156.9686 C.2     1  UNL1        0.4090
     31 O         146.3872  142.7861  158.0731 O.2     1  UNL1       -0.2258
     32 N         144.0223  142.0856  157.2570 N.am    1  UNL1       -0.2181
     33 C         143.1050  141.6512  156.1525 C.3     1  UNL1        0.1237
     34 C         147.3165  141.4992  155.3518 C.3     1  UNL1        0.2574
     35 O         146.0006  142.1835  155.5757 O.3     1  UNL1       -0.4302
@<TRIPOS>BOND
     1    34    35    1
     2    35    30    1
     3    30    31    2
     4    30    32   am
     5    32    33    1
     6    32     1    1
     7     1     2   ar
     8     2     3    1
     9     2     4   ar
    10     4     5   ar
    11     5    13    1
    12    13    14   ar
    13    14    15   ar
    14    15    22    1
    15    22    23    1
    16    23    24   ar
    17    24    25   ar
    18    25    26   ar
    19    26    27   ar
    20    27    28   ar
    21    28    29    1
    22    15    16   ar
    23    16    17   ar
    24    17    18   ar
    25    18    19   ar
    26    19    20   ar
    27    20    21   ar
    28     5     6   ar
    29     6     7   ar
    30     7     8    1
    31     7     1   ar
    32    21    13   ar
    33    28    23   ar
    34    21    16   ar
    35     3     9    1
    36     3    10    1
    37     8    11    1
    38     8    12    1
@<TRIPOS>MOLECULE
*****
 35 38 0 0 0
SMALL
GASTEIGER

@<TRIPOS>ATOM
      1 C         140.5646  145.1375  156.5263 C.ar    1  UNL1        0.1194
      2 C         139.3691  144.2413  156.6591 C.ar    1  UNL1        0.1452
      3 N         138.5565  143.8906  155.4480 N.pl3   1  UNL1       -0.3415
      4 N         138.9863  143.6957  158.0029 N.ar    1  UNL1       -0.1940
      5 C         139.7988  144.0463  159.2139 C.ar    1  UNL1        0.2554
      6 N         140.9943  144.9426  159.0812 N.ar    1  UNL1       -0.1940
      7 C         141.3772  145.4881  157.7374 C.ar    1  UNL1        0.1452
      8 N         142.5727  146.3843  157.6048 N.pl3   1  UNL1       -0.3415
      9 H         138.8078  144.2487  154.5660 H       1  UNL1        0.1438
     10 H         137.7719  143.3024  155.5351 H       1  UNL1        0.1438
     11 H         143.1060  146.6144  158.3997 H       1  UNL1        0.1438
     12 H         142.8240  146.7424  156.7228 H       1  UNL1        0.1438
     13 N         139.4159  143.5007  160.5577 N.ar    1  UNL1       -0.1967
     14 N         138.3629  142.4656  160.8216 N.ar    1  UNL1       -0.1666
     15 C         138.3151  142.2197  162.3005 C.ar    1  UNL1        0.0849
     16 C         139.3385  143.1028  162.9507 C.ar    1  UNL1        0.0334
     17 C         139.7388  143.2883  164.3843 C.ar    1  UNL1        0.0027
     18 C         140.8195  144.2655  164.7408 C.ar    1  UNL1        0.0001
     19 C         141.4999  145.0573  163.6636 C.ar    1  UNL1        0.0015
     20 C         141.0996  144.8718  162.2300 C.ar    1  UNL1        0.0193
     21 C         140.0189  143.8945  161.8735 C.ar    1  UNL1        0.0870
     22 C         137.4038  141.2593  163.0056 C.3     1  UNL1        0.0747
     23 C         137.9720  140.0524  163.6918 C.ar    1  UNL1       -0.0056
     24 C         138.1723  140.0598  165.1784 C.ar    1  UNL1       -0.0031
     25 C         138.7405  138.8531  165.8646 C.ar    1  UNL1       -0.0003
     26 C         139.1085  137.6390  165.0643 C.ar    1  UNL1        0.0008
     27 C         138.9082  137.6317  163.5777 C.ar    1  UNL1        0.0111
     28 C         138.3400  138.8384  162.8915 C.ar    1  UNL1        0.0541
     29 CL        138.1398  138.8310  161.4049 Cl      1  UNL1       -0.0826
     30 C         140.3038  146.9378  154.6715 C.2     1  UNL1        0.4090
     31 O         139.2773  147.6469  155.5041 O.2     1  UNL1       -0.2258
     32 N         140.9475  145.6830  155.1825 N.am    1  UNL1       -0.2181
     33 C         141.9740  144.9738  154.3499 C.3     1  UNL1        0.1237
     34 C         140.3331  148.8947  152.9627 C.3     1  UNL1        0.2574
     35 O         140.6866  147.4834  153.3276 O.3     1  UNL1       -0.4302
@<TRIPOS>BOND
     1    34    35    1
     2    35    30    1
     3    30    31    2
     4    30    32   am
     5    32    33    1
     6    32     1    1
     7     1     2   ar
     8     2     3    1
     9     2     4   ar
    10     4     5   ar
    11     5    13    1
    12    13    14   ar
    13    14    15   ar
    14    15    22    1
    15    22    23    1
    16    23    24   ar
    17    24    25   ar
    18    25    26   ar
    19    26    27   ar
    20    27    28   ar
    21    28    29    1
    22    15    16   ar
    23    16    17   ar
    24    17    18   ar
    25    18    19   ar
    26    19    20   ar
    27    20    21   ar
    28     5     6   ar
    29     6     7   ar
    30     7     8    1
    31     7     1   ar
    32    21    13   ar
    33    28    23   ar
    34    21    16   ar
    35     3     9    1
    36     3    10    1
    37     8    11    1
    38     8    12    1
@<TRIPOS>MOLECULE
*****
 35 38 0 0 0
SMALL
GASTEIGER

@<TRIPOS>ATOM
      1 C         140.5019  144.6309  157.5704 C.ar    1  UNL1        0.1194
      2 C         141.6172  145.3355  158.2843 C.ar    1  UNL1        0.1452
      3 N         142.4778  146.3177  157.5463 N.pl3   1  UNL1       -0.3415
      4 N         141.8719  145.0578  159.7363 N.ar    1  UNL1       -0.1940
      5 C         141.0114  144.0757  160.4743 C.ar    1  UNL1        0.2554
      6 N         139.8961  143.3710  159.7603 N.ar    1  UNL1       -0.1940
      7 C         139.6414  143.6487  158.3084 C.ar    1  UNL1        0.1452
      8 N         138.5261  142.9440  157.5946 N.pl3   1  UNL1       -0.3415
      9 H         142.3106  146.4999  156.5934 H       1  UNL1        0.1438
     10 H         143.2098  146.7801  158.0149 H       1  UNL1        0.1438
     11 H         137.9613  142.2994  158.0790 H       1  UNL1        0.1438
     12 H         138.3589  143.1262  156.6417 H       1  UNL1        0.1438
     13 N         141.2662  143.7980  161.9262 N.ar    1  UNL1       -0.1967
     14 N         142.5588  143.3211  162.5191 N.ar    1  UNL1       -0.1666
     15 C         142.3644  143.1769  163.9994 C.ar    1  UNL1        0.0849
     16 C         140.9517  143.5647  164.3214 C.ar    1  UNL1        0.0334
     17 C         140.1956  143.6179  165.6159 C.ar    1  UNL1        0.0027
     18 C         138.7608  144.0550  165.6289 C.ar    1  UNL1        0.0001
     19 C         138.0820  144.4389  164.3476 C.ar    1  UNL1        0.0015
     20 C         138.8381  144.3857  163.0531 C.ar    1  UNL1        0.0193
     21 C         140.2729  143.9486  163.0401 C.ar    1  UNL1        0.0870
     22 C         143.4009  142.7243  164.9848 C.3     1  UNL1        0.0747
     23 C         143.4187  141.2994  165.4534 C.ar    1  UNL1       -0.0056
     24 C         142.6771  140.9098  166.6977 C.ar    1  UNL1       -0.0031
     25 C         142.6949  139.4850  167.1663 C.ar    1  UNL1       -0.0003
     26 C         143.4542  138.4498  166.3906 C.ar    1  UNL1        0.0008
     27 C         144.1958  138.8395  165.1463 C.ar    1  UNL1        0.0111
     28 C         144.1781  140.2643  164.6777 C.ar    1  UNL1        0.0541
     29 CL        144.9196  140.6539  163.4334 Cl      1  UNL1       -0.0826
     30 C         140.9419  144.0958  155.0665 C.2     1  UNL1        0.4090
     31 O         141.8913  143.0055  155.4663 O.2     1  UNL1       -0.2258
     32 N         140.2472  144.9085  156.1185 N.am    1  UNL1       -0.2181
     33 C         139.2978  145.9988  155.7187 C.3     1  UNL1        0.1237
     34 C         141.8057  144.8459  152.7338 C.3     1  UNL1        0.2574
     35 O         140.6873  144.3734  153.6145 O.3     1  UNL1       -0.4302
@<TRIPOS>BOND
     1    34    35    1
     2    35    30    1
     3    30    31    2
     4    30    32   am
     5    32    33    1
     6    32     1    1
     7     1     2   ar
     8     2     3    1
     9     2     4   ar
    10     4     5   ar
    11     5    13    1
    12    13    14   ar
    13    14    15   ar
    14    15    22    1
    15    22    23    1
    16    23    24   ar
    17    24    25   ar
    18    25    26   ar
    19    26    27   ar
    20    27    28   ar
    21    28    29    1
    22    15    16   ar
    23    16    17   ar
    24    17    18   ar
    25    18    19   ar
    26    19    20   ar
    27    20    21   ar
    28     5     6   ar
    29     6     7   ar
    30     7     8    1
    31     7     1   ar
    32    21    13   ar
    33    28    23   ar
    34    21    16   ar
    35     3     9    1
    36     3    10    1
    37     8    11    1
    38     8    12    1
@<TRIPOS>MOLECULE
*****
 35 38 0 0 0
SMALL
GASTEIGER

@<TRIPOS>ATOM
      1 C         140.5068  144.6201  157.5573 C.ar    1  UNL1        0.1194
      2 C         139.6275  143.6459  158.2838 C.ar    1  UNL1        0.1452
      3 N         138.5275  142.9372  157.5505 N.pl3   1  UNL1       -0.3415
      4 N         139.8482  143.3805  159.7435 N.ar    1  UNL1       -0.1940
      5 C         140.9482  144.0891  160.4768 C.ar    1  UNL1        0.2554
      6 N         141.8275  145.0633  159.7503 N.ar    1  UNL1       -0.1940
      7 C         141.6069  145.3288  158.2906 C.ar    1  UNL1        0.1452
      8 N         142.4862  146.3030  157.5642 N.pl3   1  UNL1       -0.3415
      9 H         138.3827  143.1115  156.5924 H       1  UNL1        0.1438
     10 H         137.9504  142.2978  158.0273 H       1  UNL1        0.1438
     11 H         143.2082  146.7681  158.0455 H       1  UNL1        0.1438
     12 H         142.3414  146.4773  156.6061 H       1  UNL1        0.1438
     13 N         141.1689  143.8236  161.9366 N.ar    1  UNL1       -0.1967
     14 N         142.4541  143.3752  162.5667 N.ar    1  UNL1       -0.1666
     15 C         142.2226  143.2344  164.0420 C.ar    1  UNL1        0.0849
     16 C         140.7943  143.5958  164.3237 C.ar    1  UNL1        0.0334
     17 C         140.0025  143.6403  165.5969 C.ar    1  UNL1        0.0027
     18 C         138.5596  144.0490  165.5689 C.ar    1  UNL1        0.0001
     19 C         137.9083  144.4131  164.2676 C.ar    1  UNL1        0.0015
     20 C         138.7001  144.3686  162.9944 C.ar    1  UNL1        0.0193
     21 C         140.1430  143.9600  163.0224 C.ar    1  UNL1        0.0870
     22 C         143.2406  142.8073  165.0574 C.3     1  UNL1        0.0747
     23 C         143.2483  141.3952  165.5637 C.ar    1  UNL1       -0.0056
     24 C         143.7373  140.2849  164.6816 C.ar    1  UNL1       -0.0031
     25 C         143.7450  138.8729  165.1877 C.ar    1  UNL1       -0.0003
     26 C         143.2637  138.5713  166.5760 C.ar    1  UNL1        0.0008
     27 C         142.7747  139.6816  167.4581 C.ar    1  UNL1        0.0111
     28 C         142.7670  141.0935  166.9519 C.ar    1  UNL1        0.0541
     29 CL        142.2779  142.2038  167.8340 Cl      1  UNL1       -0.0826
     30 C         140.9929  144.0537  155.0688 C.2     1  UNL1        0.4090
     31 O         141.9203  142.9563  155.4997 O.2     1  UNL1       -0.2258
     32 N         140.2862  144.8856  156.0976 N.am    1  UNL1       -0.2181
     33 C         139.3588  145.9830  155.6667 C.3     1  UNL1        0.1237
     34 C         139.8371  143.4499  152.8216 C.3     1  UNL1        0.2574
     35 O         140.7722  144.3191  153.6090 O.3     1  UNL1       -0.4302
@<TRIPOS>BOND
     1    34    35    1
     2    35    30    1
     3    30    31    2
     4    30    32   am
     5    32    33    1
     6    32     1    1
     7     1     2   ar
     8     2     3    1
     9     2     4   ar
    10     4     5   ar
    11     5    13    1
    12    13    14   ar
    13    14    15   ar
    14    15    22    1
    15    22    23    1
    16    23    24   ar
    17    24    25   ar
    18    25    26   ar
    19    26    27   ar
    20    27    28   ar
    21    28    29    1
    22    15    16   ar
    23    16    17   ar
    24    17    18   ar
    25    18    19   ar
    26    19    20   ar
    27    20    21   ar
    28     5     6   ar
    29     6     7   ar
    30     7     8    1
    31     7     1   ar
    32    21    13   ar
    33    28    23   ar
    34    21    16   ar
    35     3     9    1
    36     3    10    1
    37     8    11    1
    38     8    12    1
@<TRIPOS>MOLECULE
*****
 35 38 0 0 0
SMALL
GASTEIGER

@<TRIPOS>ATOM
      1 C         140.5215  144.6924  157.4682 C.ar    1  UNL1        0.1194
      2 C         141.7429  145.1327  158.2195 C.ar    1  UNL1        0.1452
      3 N         142.5852  146.2551  157.6897 N.pl3   1  UNL1       -0.3415
      4 N         142.1219  144.4507  159.5005 N.ar    1  UNL1       -0.1940
      5 C         141.2797  143.3283  160.0304 C.ar    1  UNL1        0.2554
      6 N         140.0583  142.8879  159.2791 N.ar    1  UNL1       -0.1940
      7 C         139.6792  143.5700  157.9981 C.ar    1  UNL1        0.1452
      8 N         138.4579  143.1296  157.2469 N.pl3   1  UNL1       -0.3415
      9 H         142.3364  146.7028  156.8489 H       1  UNL1        0.1438
     10 H         143.3868  146.5442  158.1827 H       1  UNL1        0.1438
     11 H         137.9051  142.3929  157.5947 H       1  UNL1        0.1438
     12 H         138.2091  143.5772  156.4061 H       1  UNL1        0.1438
     13 N         141.6588  142.6462  161.3115 N.ar    1  UNL1       -0.1967
     14 N         141.3370  141.2295  161.6847 N.ar    1  UNL1       -0.1666
     15 C         141.9055  140.9689  163.0481 C.ar    1  UNL1        0.0849
     16 C         142.5787  142.2245  163.5174 C.ar    1  UNL1        0.0334
     17 C         143.3108  142.5578  164.7835 C.ar    1  UNL1        0.0027
     18 C         143.8905  143.9277  164.9762 C.ar    1  UNL1        0.0001
     19 C         143.7380  144.9644  163.9028 C.ar    1  UNL1        0.0015
     20 C         143.0058  144.6311  162.6368 C.ar    1  UNL1        0.0193
     21 C         142.4262  143.2612  162.4441 C.ar    1  UNL1        0.0870
     22 C         141.8165  139.6791  163.8087 C.3     1  UNL1        0.0747
     23 C         140.6746  139.4419  164.7521 C.ar    1  UNL1       -0.0056
     24 C         140.5167  140.3032  165.9700 C.ar    1  UNL1       -0.0031
     25 C         139.3749  140.0661  166.9134 C.ar    1  UNL1       -0.0003
     26 C         138.3910  138.9677  166.6389 C.ar    1  UNL1        0.0008
     27 C         138.5489  138.1064  165.4210 C.ar    1  UNL1        0.0111
     28 C         139.6907  138.3435  164.4776 C.ar    1  UNL1        0.0541
     29 CL        139.8486  137.4822  163.2597 Cl      1  UNL1       -0.0826
     30 C         139.4357  146.6970  156.2224 C.2     1  UNL1        0.4090
     31 O         139.1079  147.3375  157.5386 O.2     1  UNL1       -0.2258
     32 N         140.1425  145.3744  156.1872 N.am    1  UNL1       -0.2181
     33 C         140.4702  144.7340  154.8710 C.3     1  UNL1        0.1237
     34 C         139.4214  148.8173  154.7209 C.3     1  UNL1        0.2574
     35 O         139.0566  147.3791  154.9414 O.3     1  UNL1       -0.4302
@<TRIPOS>BOND
     1    34    35    1
     2    35    30    1
     3    30    31    2
     4    30    32   am
     5    32    33    1
     6    32     1    1
     7     1     2   ar
     8     2     3    1
     9     2     4   ar
    10     4     5   ar
    11     5    13    1
    12    13    14   ar
    13    14    15   ar
    14    15    22    1
    15    22    23    1
    16    23    24   ar
    17    24    25   ar
    18    25    26   ar
    19    26    27   ar
    20    27    28   ar
    21    28    29    1
    22    15    16   ar
    23    16    17   ar
    24    17    18   ar
    25    18    19   ar
    26    19    20   ar
    27    20    21   ar
    28     5     6   ar
    29     6     7   ar
    30     7     8    1
    31     7     1   ar
    32    21    13   ar
    33    28    23   ar
    34    21    16   ar
    35     3     9    1
    36     3    10    1
    37     8    11    1
    38     8    12    1
