@<TRIPOS>MOLECULE
*****
 27 31 0 0 0
SMALL
GASTEIGER

@<TRIPOS>ATOM
      1 C         143.7232  142.8822  165.7226 C.3     1  UNL1        0.0175
      2 C         142.5728  141.9256  165.6144 C.3     1  UNL1        0.0592
      3 C         142.1946  141.3554  164.2796 C.3     1  UNL1        0.0434
      4 C         141.0443  140.3988  164.1714 C.2     1  UNL1       -0.0040
      5 C         140.2723  140.0124  165.3980 C.2     1  UNL1        0.0798
      6 N         139.1944  139.0546  164.9847 N.2     1  UNL1       -0.2519
      7 C         139.3003  138.8491  163.5026 C.2     1  UNL1        0.0629
      8 C         138.5033  138.0128  162.5458 C.3     1  UNL1        0.0741
      9 C         138.8497  138.0072  161.0864 C.2     1  UNL1        0.0098
     10 C         139.9930  138.8380  160.5838 C.2     1  UNL1        0.1363
     11 F         140.3394  138.8324  159.1243 F       1  UNL1       -0.2045
     12 C         140.7900  139.6743  161.5405 C.2     1  UNL1        0.0302
     13 C         140.4436  139.6798  163.0000 C.2     1  UNL1        0.0134
     14 C         140.6505  140.5826  166.7329 C.3     1  UNL1        0.1673
     15 N         141.8008  141.5392  166.8411 N.3     1  UNL1       -0.2858
     16 C         139.4827  139.6423  166.7799 C.2     1  UNL1        0.2481
     17 O         138.6562  138.7899  165.8632 O.2     1  UNL1       -0.2726
     18 N         139.0212  139.5472  168.2039 N.am    1  UNL1       -0.2825
     19 C         139.9037  140.4288  169.0370 C.ar    1  UNL1        0.0484
     20 C         139.9204  140.7314  170.5061 C.ar    1  UNL1        0.0153
     21 C         140.9442  141.6741  171.0659 C.ar    1  UNL1        0.0126
     22 C         141.9511  142.3139  170.1569 C.ar    1  UNL1        0.0575
     23 CL        142.9749  143.2565  170.7167 Cl      1  UNL1       -0.0823
     24 C         141.9344  142.0112  168.6878 C.ar    1  UNL1        0.0104
     25 C         140.9107  141.0687  168.1279 C.ar    1  UNL1        0.0184
     26 H         142.4687  141.1243  167.4908 H       1  UNL1        0.1242
     27 H         138.2708  139.0020  168.5338 H       1  UNL1        0.1549
@<TRIPOS>BOND
     1     2     1    1
     2     2     3    1
     3     3     4    1
     4     4     5    2
     5     5     6    1
     6     6     7    2
     7     7     8    1
     8     8     9    1
     9     9    10    2
    10    10    11    1
    11    10    12    1
    12    12    13    2
    13     5    14    1
    14    14    15    1
    15    14    16    1
    16    16    17    2
    17    16    18   am
    18    18    19    1
    19    19    20   ar
    20    20    21   ar
    21    21    22   ar
    22    22    23    1
    23    22    24   ar
    24    24    25   ar
    25    15     2    1
    26    25    19   ar
    27    13     4    1
    28    25    14    1
    29    13     7    1
    30    15    26    1
    31    18    27    1
@<TRIPOS>MOLECULE
*****
 27 31 0 0 0
SMALL
GASTEIGER

@<TRIPOS>ATOM
      1 C         138.1800  137.4463  166.0327 C.3     1  UNL1        0.0175
      2 C         139.3799  138.2371  165.6024 C.3     1  UNL1        0.0592
      3 C         140.0255  137.9590  164.2773 C.3     1  UNL1        0.0434
      4 C         141.2253  138.7498  163.8469 C.2     1  UNL1       -0.0040
      5 C         141.7794  139.8186  164.7417 C.2     1  UNL1        0.0798
      6 N         142.9640  140.4303  164.0542 N.2     1  UNL1       -0.2519
      7 C         143.1420  139.7396  162.7347 C.2     1  UNL1        0.0629
      8 C         144.1436  139.9223  161.6332 C.3     1  UNL1        0.0741
      9 C         144.0707  139.0662  160.4037 C.2     1  UNL1        0.0098
     10 C         142.9961  138.0276  160.2756 C.2     1  UNL1        0.1363
     11 F         142.9233  137.1715  159.0459 F       1  UNL1       -0.2045
     12 C         141.9945  137.8449  161.3770 C.2     1  UNL1        0.0302
     13 C         142.0674  138.7010  162.6066 C.2     1  UNL1        0.0134
     14 C         141.1338  140.0967  166.0668 C.3     1  UNL1        0.1673
     15 N         139.9340  139.3059  166.4971 N.3     1  UNL1       -0.2858
     16 C         142.3215  140.9644  165.7728 C.2     1  UNL1        0.2481
     17 O         143.3457  141.1851  164.6993 O.2     1  UNL1       -0.2726
     18 N         142.5193  141.8894  166.9368 N.am    1  UNL1       -0.2825
     19 C         141.4538  141.5934  167.9503 C.ar    1  UNL1        0.0484
     20 C         141.1528  142.1897  169.2934 C.ar    1  UNL1        0.0153
     21 C         139.9953  141.6779  170.0987 C.ar    1  UNL1        0.0126
     22 C         139.1391  140.5700  169.5610 C.ar    1  UNL1        0.0575
     23 CL        137.9816  140.0582  170.3663 Cl      1  UNL1       -0.0823
     24 C         139.4401  139.9737  168.2179 C.ar    1  UNL1        0.0104
     25 C         140.5975  140.4855  167.4126 C.ar    1  UNL1        0.0184
     26 H         139.1815  139.9759  166.6565 H       1  UNL1        0.1242
     27 H         143.2246  142.5712  167.0209 H       1  UNL1        0.1549
@<TRIPOS>BOND
     1     2     1    1
     2     2     3    1
     3     3     4    1
     4     4     5    2
     5     5     6    1
     6     6     7    2
     7     7     8    1
     8     8     9    1
     9     9    10    2
    10    10    11    1
    11    10    12    1
    12    12    13    2
    13     5    14    1
    14    14    15    1
    15    14    16    1
    16    16    17    2
    17    16    18   am
    18    18    19    1
    19    19    20   ar
    20    20    21   ar
    21    21    22   ar
    22    22    23    1
    23    22    24   ar
    24    24    25   ar
    25    15     2    1
    26    25    19   ar
    27    13     4    1
    28    25    14    1
    29    13     7    1
    30    15    26    1
    31    18    27    1
@<TRIPOS>MOLECULE
*****
 27 31 0 0 0
SMALL
GASTEIGER

@<TRIPOS>ATOM
      1 C         144.0379  141.1590  163.0298 C.3     1  UNL1        0.0175
      2 C         142.9663  140.9621  164.0609 C.3     1  UNL1        0.0592
      3 C         143.1468  141.5121  165.4447 C.3     1  UNL1        0.0434
      4 C         142.0752  141.3152  166.4757 C.2     1  UNL1       -0.0040
      5 C         140.8232  140.5683  166.1229 C.2     1  UNL1        0.0798
      6 N         139.9470  140.5313  167.3398 N.2     1  UNL1       -0.2519
      7 C         140.6576  141.2554  168.4448 C.2     1  UNL1        0.0629
      8 C         140.2768  141.5362  169.8682 C.3     1  UNL1        0.0741
      9 C         141.2114  142.3015  170.7575 C.2     1  UNL1        0.0098
     10 C         142.5267  142.7859  170.2234 C.2     1  UNL1        0.1363
     11 F         143.4613  143.5512  171.1128 F       1  UNL1       -0.2045
     12 C         142.9075  142.5051  168.8000 C.2     1  UNL1        0.0302
     13 C         141.9729  141.7399  167.9107 C.2     1  UNL1        0.0134
     14 C         140.6427  140.0182  164.7391 C.3     1  UNL1        0.1673
     15 N         141.7142  140.2152  163.7080 N.3     1  UNL1       -0.2858
     16 C         139.4905  139.7441  165.6596 C.2     1  UNL1        0.2481
     17 O         139.0647  139.9996  167.0751 O.2     1  UNL1       -0.2726
     18 N         138.4587  138.9708  164.8933 N.am    1  UNL1       -0.2825
     19 C         138.9732  138.7669  163.4991 C.ar    1  UNL1        0.0484
     20 C         138.3869  138.0754  162.3041 C.ar    1  UNL1        0.0153
     21 C         139.1505  138.0314  161.0136 C.ar    1  UNL1        0.0126
     22 C         140.5002  138.6787  160.9183 C.ar    1  UNL1        0.0575
     23 CL        141.2638  138.6346  159.6279 Cl      1  UNL1       -0.0823
     24 C         141.0864  139.3702  162.1134 C.ar    1  UNL1        0.0104
     25 C         140.3229  139.4143  163.4038 C.ar    1  UNL1        0.0184
     26 H         141.2845  140.7125  162.9281 H       1  UNL1        0.1242
     27 H         137.5954  138.6528  165.2438 H       1  UNL1        0.1549
@<TRIPOS>BOND
     1     2     1    1
     2     2     3    1
     3     3     4    1
     4     4     5    2
     5     5     6    1
     6     6     7    2
     7     7     8    1
     8     8     9    1
     9     9    10    2
    10    10    11    1
    11    10    12    1
    12    12    13    2
    13     5    14    1
    14    14    15    1
    15    14    16    1
    16    16    17    2
    17    16    18   am
    18    18    19    1
    19    19    20   ar
    20    20    21   ar
    21    21    22   ar
    22    22    23    1
    23    22    24   ar
    24    24    25   ar
    25    15     2    1
    26    25    19   ar
    27    13     4    1
    28    25    14    1
    29    13     7    1
    30    15    26    1
    31    18    27    1
@<TRIPOS>MOLECULE
*****
 27 31 0 0 0
SMALL
GASTEIGER

@<TRIPOS>ATOM
      1 C         143.8844  140.6072  162.2570 C.3     1  UNL1        0.0175
      2 C         143.0441  141.1158  163.3908 C.3     1  UNL1        0.0592
      3 C         143.0893  140.4300  164.7241 C.3     1  UNL1        0.0434
      4 C         142.2490  140.9385  165.8579 C.2     1  UNL1       -0.0040
      5 C         141.3637  142.1328  165.6583 C.2     1  UNL1        0.0798
      6 N         140.6535  142.4045  166.9513 N.2     1  UNL1       -0.2519
      7 C         141.1000  141.3781  167.9500 C.2     1  UNL1        0.0629
      8 C         140.7360  141.1516  169.3874 C.3     1  UNL1        0.0741
      9 C         141.3581  140.0189  170.1490 C.2     1  UNL1        0.0098
     10 C         142.3442  139.1129  169.4732 C.2     1  UNL1        0.1363
     11 F         142.9663  137.9802  170.2349 F       1  UNL1       -0.2045
     12 C         142.7082  139.3395  168.0358 C.2     1  UNL1        0.0302
     13 C         142.0861  140.4721  167.2742 C.2     1  UNL1        0.0134
     14 C         141.3185  142.8186  164.3250 C.3     1  UNL1        0.1673
     15 N         142.1588  142.3101  163.1913 N.3     1  UNL1       -0.2858
     16 C         140.4267  143.4378  165.3600 C.2     1  UNL1        0.2481
     17 O         140.0306  143.2524  166.7949 O.2     1  UNL1       -0.2726
     18 N         139.7265  144.6052  164.7301 N.am    1  UNL1       -0.2825
     19 C         140.1856  144.7075  163.3058 C.ar    1  UNL1        0.0484
     20 C         139.8348  145.6635  162.2045 C.ar    1  UNL1        0.0153
     21 C         140.4680  145.5153  160.8527 C.ar    1  UNL1        0.0126
     22 C         141.4518  144.4111  160.6023 C.ar    1  UNL1        0.0575
     23 CL        142.0850  144.2629  159.2505 Cl      1  UNL1       -0.0823
     24 C         141.8026  143.4551  161.7037 C.ar    1  UNL1        0.0104
     25 C         141.1695  143.6033  163.0554 C.ar    1  UNL1        0.0184
     26 H         142.7631  143.0800  162.9043 H       1  UNL1        0.1242
     27 H         139.0793  145.1999  165.1737 H       1  UNL1        0.1549
@<TRIPOS>BOND
     1     2     1    1
     2     2     3    1
     3     3     4    1
     4     4     5    2
     5     5     6    1
     6     6     7    2
     7     7     8    1
     8     8     9    1
     9     9    10    2
    10    10    11    1
    11    10    12    1
    12    12    13    2
    13     5    14    1
    14    14    15    1
    15    14    16    1
    16    16    17    2
    17    16    18   am
    18    18    19    1
    19    19    20   ar
    20    20    21   ar
    21    21    22   ar
    22    22    23    1
    23    22    24   ar
    24    24    25   ar
    25    15     2    1
    26    25    19   ar
    27    13     4    1
    28    25    14    1
    29    13     7    1
    30    15    26    1
    31    18    27    1
@<TRIPOS>MOLECULE
*****
 27 31 0 0 0
SMALL
GASTEIGER

@<TRIPOS>ATOM
      1 C         139.6241  143.6980  165.6658 C.3     1  UNL1        0.0175
      2 C         140.5268  142.5178  165.4598 C.3     1  UNL1        0.0592
      3 C         140.9384  142.1215  164.0729 C.3     1  UNL1        0.0434
      4 C         141.8410  140.9413  163.8669 C.2     1  UNL1       -0.0040
      5 C         142.3320  140.1575  165.0478 C.2     1  UNL1        0.0798
      6 N         143.2054  139.0496  164.5380 N.2     1  UNL1       -0.2519
      7 C         143.2541  139.1487  163.0420 C.2     1  UNL1        0.0629
      8 C         143.9574  138.3255  162.0040 C.3     1  UNL1        0.0741
      9 C         143.8174  138.6713  160.5512 C.2     1  UNL1        0.0098
     10 C         142.9741  139.8405  160.1364 C.2     1  UNL1        0.1363
     11 F         142.8342  140.1863  158.6835 F       1  UNL1       -0.2045
     12 C         142.2709  140.6638  161.1745 C.2     1  UNL1        0.0302
     13 C         142.4109  140.3179  162.6273 C.2     1  UNL1        0.0134
     14 C         141.9204  140.5538  166.4347 C.3     1  UNL1        0.1673
     15 N         141.0178  141.7340  166.6407 N.3     1  UNL1       -0.2858
     16 C         142.8229  139.3567  166.3848 C.2     1  UNL1        0.2481
     17 O         143.5456  138.5034  165.3849 O.2     1  UNL1       -0.2726
     18 N         143.0555  138.8925  167.7920 N.am    1  UNL1       -0.2825
     19 C         142.2967  139.8027  168.7117 C.ar    1  UNL1        0.0484
     20 C         142.1539  139.8292  170.2046 C.ar    1  UNL1        0.0153
     21 C         141.3096  140.8825  170.8587 C.ar    1  UNL1        0.0126
     22 C         140.6082  141.9092  170.0199 C.ar    1  UNL1        0.0575
     23 CL        139.7638  142.9626  170.6739 Cl      1  UNL1       -0.0823
     24 C         140.7509  141.8827  168.5269 C.ar    1  UNL1        0.0104
     25 C         141.5952  140.8295  167.8728 C.ar    1  UNL1        0.0184
     26 H         141.5209  142.3884  167.2399 H       1  UNL1        0.1242
     27 H         143.6089  138.1251  168.0643 H       1  UNL1        0.1549
@<TRIPOS>BOND
     1     2     1    1
     2     2     3    1
     3     3     4    1
     4     4     5    2
     5     5     6    1
     6     6     7    2
     7     7     8    1
     8     8     9    1
     9     9    10    2
    10    10    11    1
    11    10    12    1
    12    12    13    2
    13     5    14    1
    14    14    15    1
    15    14    16    1
    16    16    17    2
    17    16    18   am
    18    18    19    1
    19    19    20   ar
    20    20    21   ar
    21    21    22   ar
    22    22    23    1
    23    22    24   ar
    24    24    25   ar
    25    15     2    1
    26    25    19   ar
    27    13     4    1
    28    25    14    1
    29    13     7    1
    30    15    26    1
    31    18    27    1
@<TRIPOS>MOLECULE
*****
 27 31 0 0 0
SMALL
GASTEIGER

@<TRIPOS>ATOM
      1 C         139.0771  144.8448  164.4668 C.3     1  UNL1        0.0175
      2 C         140.0415  143.7431  164.7934 C.3     1  UNL1        0.0592
      3 C         140.0133  143.0988  166.1477 C.3     1  UNL1        0.0434
      4 C         140.9776  141.9972  166.4743 C.2     1  UNL1       -0.0040
      5 C         141.9699  141.5399  165.4466 C.2     1  UNL1        0.0798
      6 N         142.7906  140.4399  166.0520 N.2     1  UNL1       -0.2519
      7 C         142.3054  140.2173  167.4538 C.2     1  UNL1        0.0629
      8 C         142.7392  139.2627  168.5263 C.3     1  UNL1        0.0741
      9 C         142.0525  139.2704  169.8598 C.2     1  UNL1        0.0098
     10 C         140.9320  140.2329  170.1208 C.2     1  UNL1        0.1363
     11 F         140.2452  140.2406  171.4544 F       1  UNL1       -0.2045
     12 C         140.4982  141.1876  169.0483 C.2     1  UNL1        0.0302
     13 C         141.1849  141.1798  167.7148 C.2     1  UNL1        0.0134
     14 C         141.9980  142.1842  164.0923 C.3     1  UNL1        0.1673
     15 N         141.0338  143.2858  163.7657 N.3     1  UNL1       -0.2858
     16 C         143.0186  141.1000  164.2733 C.2     1  UNL1        0.2481
     17 O         143.4886  140.1263  165.3131 O.2     1  UNL1       -0.2726
     18 N         143.7954  140.9765  162.9961 N.am    1  UNL1       -0.2825
     19 C         143.2549  141.9845  162.0257 C.ar    1  UNL1        0.0484
     20 C         143.6308  142.3192  160.6126 C.ar    1  UNL1        0.0153
     21 C         142.8957  143.4003  159.8770 C.ar    1  UNL1        0.0126
     22 C         141.7850  144.1467  160.5545 C.ar    1  UNL1        0.0575
     23 CL        141.0499  145.2278  159.8189 Cl      1  UNL1       -0.0823
     24 C         141.4091  143.8120  161.9675 C.ar    1  UNL1        0.0104
     25 C         142.1441  142.7310  162.7031 C.ar    1  UNL1        0.0184
     26 H         140.4971  142.9768  162.9552 H       1  UNL1        0.1242
     27 H         144.5308  140.3448  162.8248 H       1  UNL1        0.1549
@<TRIPOS>BOND
     1     2     1    1
     2     2     3    1
     3     3     4    1
     4     4     5    2
     5     5     6    1
     6     6     7    2
     7     7     8    1
     8     8     9    1
     9     9    10    2
    10    10    11    1
    11    10    12    1
    12    12    13    2
    13     5    14    1
    14    14    15    1
    15    14    16    1
    16    16    17    2
    17    16    18   am
    18    18    19    1
    19    19    20   ar
    20    20    21   ar
    21    21    22   ar
    22    22    23    1
    23    22    24   ar
    24    24    25   ar
    25    15     2    1
    26    25    19   ar
    27    13     4    1
    28    25    14    1
    29    13     7    1
    30    15    26    1
    31    18    27    1
@<TRIPOS>MOLECULE
*****
 27 31 0 0 0
SMALL
GASTEIGER

@<TRIPOS>ATOM
      1 C         138.5707  144.7810  165.3325 C.3     1  UNL1        0.0175
      2 C         139.0741  143.4159  164.9673 C.3     1  UNL1        0.0592
      3 C         138.8288  142.8691  163.5922 C.3     1  UNL1        0.0434
      4 C         139.3321  141.5041  163.2271 C.2     1  UNL1       -0.0040
      5 C         140.0807  140.6859  164.2371 C.2     1  UNL1        0.0798
      6 N         140.4537  139.3833  163.5936 N.2     1  UNL1       -0.2519
      7 C         139.9356  139.3964  162.1860 C.2     1  UNL1        0.0629
      8 C         140.0055  138.3842  161.0812 C.3     1  UNL1        0.0741
      9 C         139.3822  138.6828  159.7500 C.2     1  UNL1        0.0098
     10 C         138.6890  139.9936  159.5235 C.2     1  UNL1        0.1363
     11 F         138.0657  140.2921  158.1921 F       1  UNL1       -0.2045
     12 C         138.6191  141.0058  160.6282 C.2     1  UNL1        0.0302
     13 C         139.2424  140.7072  161.9595 C.2     1  UNL1        0.0134
     14 C         140.3260  141.2327  165.6122 C.3     1  UNL1        0.1673
     15 N         139.8227  142.5977  165.9773 N.3     1  UNL1       -0.2858
     16 C         140.8866  139.8587  165.3930 C.2     1  UNL1        0.2481
     17 O         140.9830  138.8147  164.3202 O.2     1  UNL1       -0.2726
     18 N         141.5526  139.4216  166.6640 N.am    1  UNL1       -0.2825
     19 C         141.4036  140.5254  167.6686 C.ar    1  UNL1        0.0484
     20 C         141.8603  140.6558  169.0915 C.ar    1  UNL1        0.0153
     21 C         141.5589  141.9057  169.8642 C.ar    1  UNL1        0.0126
     22 C         140.8009  143.0249  169.2142 C.ar    1  UNL1        0.0575
     23 CL        140.4995  144.2748  169.9870 Cl      1  UNL1       -0.0823
     24 C         140.3442  142.8945  167.7914 C.ar    1  UNL1        0.0104
     25 C         140.6456  141.6447  167.0186 C.ar    1  UNL1        0.0184
     26 H         140.6360  143.1465  166.2564 H       1  UNL1        0.1242
     27 H         142.0076  138.5612  166.8126 H       1  UNL1        0.1549
@<TRIPOS>BOND
     1     2     1    1
     2     2     3    1
     3     3     4    1
     4     4     5    2
     5     5     6    1
     6     6     7    2
     7     7     8    1
     8     8     9    1
     9     9    10    2
    10    10    11    1
    11    10    12    1
    12    12    13    2
    13     5    14    1
    14    14    15    1
    15    14    16    1
    16    16    17    2
    17    16    18   am
    18    18    19    1
    19    19    20   ar
    20    20    21   ar
    21    21    22   ar
    22    22    23    1
    23    22    24   ar
    24    24    25   ar
    25    15     2    1
    26    25    19   ar
    27    13     4    1
    28    25    14    1
    29    13     7    1
    30    15    26    1
    31    18    27    1
@<TRIPOS>MOLECULE
*****
 27 31 0 0 0
SMALL
GASTEIGER

@<TRIPOS>ATOM
      1 C         141.4325  144.2472  163.0405 C.3     1  UNL1        0.0175
      2 C         141.5610  143.1049  164.0042 C.3     1  UNL1        0.0592
      3 C         141.0857  143.2597  165.4185 C.3     1  UNL1        0.0434
      4 C         141.2142  142.1174  166.3822 C.2     1  UNL1       -0.0040
      5 C         141.8181  140.8204  165.9316 C.2     1  UNL1        0.0798
      6 N         141.8142  139.8774  167.0981 N.2     1  UNL1       -0.2519
      7 C         141.2080  140.5916  168.2696 C.2     1  UNL1        0.0629
      8 C         140.9457  140.1602  169.6820 C.3     1  UNL1        0.0741
      9 C         140.3126  141.1132  170.6520 C.2     1  UNL1        0.0098
     10 C         139.9418  142.4977  170.2095 C.2     1  UNL1        0.1363
     11 F         139.3086  143.4507  171.1796 F       1  UNL1       -0.2045
     12 C         140.2040  142.9291  168.7971 C.2     1  UNL1        0.0302
     13 C         140.8371  141.9761  167.8271 C.2     1  UNL1        0.0134
     14 C         142.2934  140.6656  164.5174 C.3     1  UNL1        0.1673
     15 N         142.1649  141.8078  163.5537 N.3     1  UNL1       -0.2858
     16 C         142.4864  139.4420  165.3632 C.2     1  UNL1        0.2481
     17 O         142.2445  138.9637  166.7642 O.2     1  UNL1       -0.2726
     18 N         143.1226  138.3845  164.5105 N.am    1  UNL1       -0.2825
     19 C         143.3228  138.9547  163.1376 C.ar    1  UNL1        0.0484
     20 C         143.9056  138.3722  161.8842 C.ar    1  UNL1        0.0153
     21 C         143.9759  139.1996  160.6349 C.ar    1  UNL1        0.0126
     22 C         143.4635  140.6093  160.6392 C.ar    1  UNL1        0.0575
     23 CL        143.5338  141.4367  159.3899 Cl      1  UNL1       -0.0823
     24 C         142.8807  141.1917  161.8926 C.ar    1  UNL1        0.0104
     25 C         142.8104  140.3644  163.1418 C.ar    1  UNL1        0.0184
     26 H         141.5973  141.4736  162.7749 H       1  UNL1        0.1242
     27 H         143.3660  137.4759  164.8009 H       1  UNL1        0.1549
@<TRIPOS>BOND
     1     2     1    1
     2     2     3    1
     3     3     4    1
     4     4     5    2
     5     5     6    1
     6     6     7    2
     7     7     8    1
     8     8     9    1
     9     9    10    2
    10    10    11    1
    11    10    12    1
    12    12    13    2
    13     5    14    1
    14    14    15    1
    15    14    16    1
    16    16    17    2
    17    16    18   am
    18    18    19    1
    19    19    20   ar
    20    20    21   ar
    21    21    22   ar
    22    22    23    1
    23    22    24   ar
    24    24    25   ar
    25    15     2    1
    26    25    19   ar
    27    13     4    1
    28    25    14    1
    29    13     7    1
    30    15    26    1
    31    18    27    1
@<TRIPOS>MOLECULE
*****
 27 31 0 0 0
SMALL
GASTEIGER

@<TRIPOS>ATOM
      1 C         140.7900  145.1400  162.7218 C.3     1  UNL1        0.0175
      2 C         140.3433  143.8805  163.4034 C.3     1  UNL1        0.0592
      3 C         140.5480  143.7137  164.8800 C.3     1  UNL1        0.0434
      4 C         140.1014  142.4544  165.5615 C.2     1  UNL1       -0.0040
      5 C         139.4501  141.3618  164.7665 C.2     1  UNL1        0.0798
      6 N         139.1160  140.2411  165.7058 N.2     1  UNL1       -0.2519
      7 C         139.5608  140.6410  167.0814 C.2     1  UNL1        0.0629
      8 C         139.4900  139.9363  168.4036 C.3     1  UNL1        0.0741
      9 C         140.0282  140.5995  169.6367 C.2     1  UNL1        0.0098
     10 C         140.6372  141.9674  169.5475 C.2     1  UNL1        0.1363
     11 F         141.1755  142.6306  170.7806 F       1  UNL1       -0.2045
     12 C         140.7081  142.6721  168.2252 C.2     1  UNL1        0.0302
     13 C         140.1699  142.0089  166.9922 C.2     1  UNL1        0.0134
     14 C         139.2454  141.5286  163.2899 C.3     1  UNL1        0.1673
     15 N         139.6920  142.7880  162.6083 N.3     1  UNL1       -0.2858
     16 C         138.7495  140.2203  163.8306 C.2     1  UNL1        0.2481
     17 O         138.6556  139.4751  165.1290 O.2     1  UNL1       -0.2726
     18 N         138.1732  139.4356  162.6894 N.am    1  UNL1       -0.2825
     19 C         138.3129  140.2590  161.4435 C.ar    1  UNL1        0.0484
     20 C         137.9223  139.9980  160.0189 C.ar    1  UNL1        0.0153
     21 C         138.1944  141.0307  158.9655 C.ar    1  UNL1        0.0126
     22 C         138.8570  142.3242  159.3365 C.ar    1  UNL1        0.0575
     23 CL        139.1290  143.3568  158.2831 Cl      1  UNL1       -0.0823
     24 C         139.2476  142.5851  160.7611 C.ar    1  UNL1        0.0104
     25 C         138.9755  141.5526  161.8145 C.ar    1  UNL1        0.0184
     26 H         138.8654  143.1950  162.1707 H       1  UNL1        0.1242
     27 H         137.7735  138.5378  162.7480 H       1  UNL1        0.1549
@<TRIPOS>BOND
     1     2     1    1
     2     2     3    1
     3     3     4    1
     4     4     5    2
     5     5     6    1
     6     6     7    2
     7     7     8    1
     8     8     9    1
     9     9    10    2
    10    10    11    1
    11    10    12    1
    12    12    13    2
    13     5    14    1
    14    14    15    1
    15    14    16    1
    16    16    17    2
    17    16    18   am
    18    18    19    1
    19    19    20   ar
    20    20    21   ar
    21    21    22   ar
    22    22    23    1
    23    22    24   ar
    24    24    25   ar
    25    15     2    1
    26    25    19   ar
    27    13     4    1
    28    25    14    1
    29    13     7    1
    30    15    26    1
    31    18    27    1
