@<TRIPOS>MOLECULE
*****
 35 38 0 0 0
SMALL
GASTEIGER

@<TRIPOS>ATOM
      1 C         142.7214  138.9598  160.8499 C.ar    1  UNL1        0.2036
      2 N         143.7117  139.6737  159.9783 N.ar    1  UNL1       -0.0556
      3 O         143.6848  139.0308  158.6234 O.2     1  UNL1       -0.3324
      4 C         142.6778  137.9195  158.6575 C.ar    1  UNL1        0.2600
      5 N         142.0825  137.8757  160.0336 N.ar    1  UNL1       -0.1870
      6 C         140.8041  140.8745  167.4294 C.2     1  UNL1        0.2297
      7 O         139.7930  141.7160  166.7085 O.2     1  UNL1       -0.2745
      8 N         141.7604  140.0200  166.6514 N.am    1  UNL1       -0.2586
      9 C         142.8203  139.1308  167.2309 C.3     1  UNL1        0.1029
     10 C         143.5396  138.4660  166.0949 C.3     1  UNL1        0.0495
     11 C         142.9243  138.9443  164.8133 C.ar    1  UNL1       -0.0067
     12 C         143.2232  138.6293  163.3775 C.ar    1  UNL1        0.0002
     13 C         142.4225  139.2748  162.2857 C.ar    1  UNL1        0.0389
     14 C         141.3229  140.2353  162.6296 C.ar    1  UNL1        0.0044
     15 C         141.0239  140.5502  164.0653 C.ar    1  UNL1        0.0147
     16 C         141.8246  139.9047  165.1572 C.ar    1  UNL1        0.0499
     17 C         140.8588  140.8876  168.9284 C.3     1  UNL1        0.0915
     18 C         139.7524  141.5271  169.7138 C.3     1  UNL1        0.0513
     19 O         140.5660  142.2075  172.0855 O.co2   1  UNL1       -0.5492
     20 C         140.0673  142.5905  170.7237 C.2     1  UNL1        0.0508
     21 O         139.8835  144.0370  170.3717 O.co2   1  UNL1       -0.5492
     22 C         142.3278  137.0115  157.5160 C.ar    1  UNL1        0.0560
     23 C         141.1335  137.3103  156.6591 C.ar    1  UNL1        0.0086
     24 C         140.7834  136.4023  155.5176 C.ar    1  UNL1        0.0715
     25 C         141.6276  135.1956  155.2331 C.ar    1  UNL1        0.0077
     26 C         142.8219  134.8967  156.0900 C.ar    1  UNL1        0.0715
     27 C         143.1720  135.8047  157.2315 C.ar    1  UNL1        0.0086
     28 C         139.5891  136.7012  154.6607 C.3     1  UNL1        0.4186
     29 F         138.3949  137.0000  153.8036 F       1  UNL1       -0.1659
     30 F         138.7825  137.0011  155.8892 F       1  UNL1       -0.1659
     31 F         140.3957  136.4012  153.4320 F       1  UNL1       -0.1659
     32 C         143.6662  133.6899  155.8054 C.3     1  UNL1        0.4186
     33 F         144.5103  132.4832  155.5209 F       1  UNL1       -0.1659
     34 F         142.9984  133.5375  154.4709 F       1  UNL1       -0.1659
     35 F         144.3339  133.8424  157.1400 F       1  UNL1       -0.1659
@<TRIPOS>UNITY_ATOM_ATTR
19 1
charge -1
@<TRIPOS>BOND
     1    19    20   ar
     2    20    21   ar
     3    20    18    1
     4    18    17    1
     5    17     6    1
     6     6     7    2
     7     6     8   am
     8     8     9    1
     9     9    10    1
    10    10    11    1
    11    11    12   ar
    12    12    13   ar
    13    13     1    1
    14     1     2   ar
    15     2     3   ar
    16     3     4   ar
    17     4    22    1
    18    22    23   ar
    19    23    24   ar
    20    24    28    1
    21    28    29    1
    22    28    30    1
    23    28    31    1
    24    24    25   ar
    25    25    26   ar
    26    26    32    1
    27    32    33    1
    28    32    34    1
    29    32    35    1
    30    26    27   ar
    31     4     5   ar
    32    13    14   ar
    33    14    15   ar
    34    15    16   ar
    35    16     8    1
    36    16    11   ar
    37     5     1   ar
    38    27    22   ar
@<TRIPOS>MOLECULE
*****
 35 38 0 0 0
SMALL
GASTEIGER

@<TRIPOS>ATOM
      1 C         142.8759  139.1971  160.6430 C.ar    1  UNL1        0.2036
      2 N         143.8323  139.8664  159.7010 N.ar    1  UNL1       -0.0556
      3 O         143.7397  139.1714  158.3750 O.2     1  UNL1       -0.3324
      4 C         142.7260  138.0725  158.4973 C.ar    1  UNL1        0.2600
      5 N         142.1922  138.0884  159.8990 N.ar    1  UNL1       -0.1870
      6 C         141.4586  141.5394  167.2108 C.2     1  UNL1        0.2297
      7 O         140.8243  142.6872  166.4829 O.2     1  UNL1       -0.2745
      8 N         142.0979  140.4232  166.4392 N.am    1  UNL1       -0.2586
      9 C         142.7676  139.2161  167.0261 C.3     1  UNL1        0.1029
     10 C         143.2634  138.3651  165.8948 C.3     1  UNL1        0.0495
     11 C         142.9001  139.0462  164.6086 C.ar    1  UNL1       -0.0067
     12 C         143.1321  138.6725  163.1746 C.ar    1  UNL1        0.0002
     13 C         142.6439  139.5708  162.0771 C.ar    1  UNL1        0.0389
     14 C         141.9236  140.8428  162.4135 C.ar    1  UNL1        0.0044
     15 C         141.6915  141.2165  163.8476 C.ar    1  UNL1        0.0147
     16 C         142.1798  140.3182  164.9451 C.ar    1  UNL1        0.0499
     17 C         141.4535  141.5076  168.7106 C.3     1  UNL1        0.0915
     18 C         140.1822  141.7705  169.4620 C.3     1  UNL1        0.0513
     19 O         140.3921  142.2807  172.0008 O.co2   1  UNL1       -0.5492
     20 C         140.1703  142.7537  170.5948 C.2     1  UNL1        0.0508
     21 O         139.9365  144.2099  170.3214 O.co2   1  UNL1       -0.5492
     22 C         142.3179  137.1243  157.4091 C.ar    1  UNL1        0.0560
     23 C         143.1346  135.8952  157.1401 C.ar    1  UNL1        0.0086
     24 C         142.7265  134.9470  156.0518 C.ar    1  UNL1        0.0715
     25 C         141.5017  135.2278  155.2326 C.ar    1  UNL1        0.0077
     26 C         140.6850  136.4569  155.5017 C.ar    1  UNL1        0.0715
     27 C         141.0931  137.4052  156.5899 C.ar    1  UNL1        0.0086
     28 C         143.5431  133.7179  155.7828 C.3     1  UNL1        0.4186
     29 F         144.3597  132.4888  155.5136 F       1  UNL1       -0.1659
     30 F         144.3353  133.9709  157.0311 F       1  UNL1       -0.1659
     31 F         142.7509  133.4648  154.5344 F       1  UNL1       -0.1659
     32 C         139.4602  136.7378  154.6825 C.3     1  UNL1        0.4186
     33 F         138.2356  137.0187  153.8633 F       1  UNL1       -0.1659
     34 F         140.2717  136.6142  153.4269 F       1  UNL1       -0.1659
     35 F         138.6488  136.8614  155.9380 F       1  UNL1       -0.1659
@<TRIPOS>UNITY_ATOM_ATTR
19 1
charge -1
@<TRIPOS>BOND
     1    19    20   ar
     2    20    21   ar
     3    20    18    1
     4    18    17    1
     5    17     6    1
     6     6     7    2
     7     6     8   am
     8     8     9    1
     9     9    10    1
    10    10    11    1
    11    11    12   ar
    12    12    13   ar
    13    13     1    1
    14     1     2   ar
    15     2     3   ar
    16     3     4   ar
    17     4    22    1
    18    22    23   ar
    19    23    24   ar
    20    24    28    1
    21    28    29    1
    22    28    30    1
    23    28    31    1
    24    24    25   ar
    25    25    26   ar
    26    26    32    1
    27    32    33    1
    28    32    34    1
    29    32    35    1
    30    26    27   ar
    31     4     5   ar
    32    13    14   ar
    33    14    15   ar
    34    15    16   ar
    35    16     8    1
    36    16    11   ar
    37     5     1   ar
    38    27    22   ar
@<TRIPOS>MOLECULE
*****
 35 38 0 0 0
SMALL
GASTEIGER

@<TRIPOS>ATOM
      1 C         142.9600  138.9685  160.5333 C.ar    1  UNL1        0.2036
      2 N         143.8355  139.7155  159.5713 N.ar    1  UNL1       -0.0556
      3 O         143.7137  139.0591  158.2281 O.2     1  UNL1       -0.3324
      4 C         142.7629  137.9064  158.3599 C.ar    1  UNL1        0.2600
      5 N         142.2971  137.8504  159.7846 N.ar    1  UNL1       -0.1870
      6 C         142.4811  139.9018  167.5712 C.2     1  UNL1        0.2297
      7 O         143.3143  138.6557  167.6236 O.2     1  UNL1       -0.2745
      8 N         142.0713  140.4749  166.2470 N.am    1  UNL1       -0.2586
      9 C         141.2434  141.7082  166.0383 C.3     1  UNL1        0.1029
     10 C         141.0778  141.9107  164.5613 C.3     1  UNL1        0.0495
     11 C         141.8033  140.8027  163.8572 C.ar    1  UNL1       -0.0067
     12 C         141.9842  140.4871  162.4020 C.ar    1  UNL1        0.0002
     13 C         142.7790  139.2841  161.9886 C.ar    1  UNL1        0.0389
     14 C         143.3931  138.3966  163.0305 C.ar    1  UNL1        0.0044
     15 C         143.2122  138.7122  164.4857 C.ar    1  UNL1        0.0147
     16 C         142.4173  139.9152  164.8990 C.ar    1  UNL1        0.0499
     17 C         142.0577  140.5749  168.8432 C.3     1  UNL1        0.0915
     18 C         141.5087  139.7597  169.9763 C.3     1  UNL1        0.0513
     19 O         139.0060  139.8047  170.6725 O.co2   1  UNL1       -0.5492
     20 C         140.4084  140.3120  170.8332 C.2     1  UNL1        0.0508
     21 O         140.7106  141.3718  171.8509 O.co2   1  UNL1       -0.5492
     22 C         142.3504  136.9735  157.2601 C.ar    1  UNL1        0.0560
     23 C         143.1507  135.7343  156.9881 C.ar    1  UNL1        0.0086
     24 C         142.7382  134.8015  155.8884 C.ar    1  UNL1        0.0715
     25 C         141.5253  135.1078  155.0605 C.ar    1  UNL1        0.0077
     26 C         140.7250  136.3469  155.3325 C.ar    1  UNL1        0.0715
     27 C         141.1375  137.2798  156.4323 C.ar    1  UNL1        0.0086
     28 C         143.5385  133.5623  155.6164 C.3     1  UNL1        0.4186
     29 F         144.3389  132.3232  155.3445 F       1  UNL1       -0.1659
     30 F         142.8833  133.4339  154.2732 F       1  UNL1       -0.1659
     31 F         144.1937  133.6908  156.9597 F       1  UNL1       -0.1659
     32 C         139.5122  136.6532  154.5047 C.3     1  UNL1        0.4186
     33 F         138.2994  136.9595  153.6769 F       1  UNL1       -0.1659
     34 F         138.7260  136.9179  155.7544 F       1  UNL1       -0.1659
     35 F         140.2984  136.3885  153.2549 F       1  UNL1       -0.1659
@<TRIPOS>UNITY_ATOM_ATTR
19 1
charge -1
@<TRIPOS>BOND
     1    19    20   ar
     2    20    21   ar
     3    20    18    1
     4    18    17    1
     5    17     6    1
     6     6     7    2
     7     6     8   am
     8     8     9    1
     9     9    10    1
    10    10    11    1
    11    11    12   ar
    12    12    13   ar
    13    13     1    1
    14     1     2   ar
    15     2     3   ar
    16     3     4   ar
    17     4    22    1
    18    22    23   ar
    19    23    24   ar
    20    24    28    1
    21    28    29    1
    22    28    30    1
    23    28    31    1
    24    24    25   ar
    25    25    26   ar
    26    26    32    1
    27    32    33    1
    28    32    34    1
    29    32    35    1
    30    26    27   ar
    31     4     5   ar
    32    13    14   ar
    33    14    15   ar
    34    15    16   ar
    35    16     8    1
    36    16    11   ar
    37     5     1   ar
    38    27    22   ar
@<TRIPOS>MOLECULE
*****
 35 38 0 0 0
SMALL
GASTEIGER

@<TRIPOS>ATOM
      1 C         140.9075  139.5967  160.4938 C.ar    1  UNL1        0.2036
      2 N         141.0933  141.0803  160.6146 N.ar    1  UNL1       -0.0556
      3 O         140.7629  141.4756  162.0233 O.2     1  UNL1       -0.3324
      4 C         140.3728  140.2364  162.7732 C.ar    1  UNL1        0.2600
      5 N         140.4622  139.0752  161.8279 N.ar    1  UNL1       -0.1870
      6 C         142.6196  135.6705  154.8118 C.2     1  UNL1        0.2297
      7 O         143.9945  135.7079  155.4101 O.2     1  UNL1       -0.2745
      8 N         141.4835  136.3694  155.4981 N.am    1  UNL1       -0.2586
      9 C         140.0620  136.4186  155.0219 C.3     1  UNL1        0.1029
     10 C         139.2696  137.2214  156.0106 C.3     1  UNL1        0.0495
     11 C         140.2013  137.6683  157.0979 C.ar    1  UNL1       -0.0067
     12 C         139.9806  138.4866  158.3354 C.ar    1  UNL1        0.0002
     13 C         141.1282  138.7783  159.2562 C.ar    1  UNL1        0.0389
     14 C         142.4965  138.2517  158.9394 C.ar    1  UNL1        0.0044
     15 C         142.7173  137.4334  157.7019 C.ar    1  UNL1        0.0147
     16 C         141.5697  137.1416  156.7811 C.ar    1  UNL1        0.0499
     17 C         142.3806  134.9340  153.5269 C.3     1  UNL1        0.0915
     18 C         142.0708  133.4665  153.5501 C.3     1  UNL1        0.0513
     19 O         143.7202  131.8270  154.7084 O.co2   1  UNL1       -0.5492
     20 C         142.4580  132.6370  154.7383 C.2     1  UNL1        0.0508
     21 O         141.5830  132.6174  155.9564 O.co2   1  UNL1       -0.5492
     22 C         139.9650  140.1701  164.2151 C.ar    1  UNL1        0.0560
     23 C         139.1408  139.0183  164.7092 C.ar    1  UNL1        0.0086
     24 C         138.7330  138.9520  166.1512 C.ar    1  UNL1        0.0715
     25 C         139.1495  140.0374  167.0991 C.ar    1  UNL1        0.0077
     26 C         139.9737  141.1891  166.6050 C.ar    1  UNL1        0.0715
     27 C         140.3815  141.2555  165.1630 C.ar    1  UNL1        0.0086
     28 C         137.9087  137.8003  166.6452 C.3     1  UNL1        0.4186
     29 F         137.0844  136.6486  167.1394 F       1  UNL1       -0.1659
     30 F         138.4993  136.9217  165.5827 F       1  UNL1       -0.1659
     31 F         137.3181  138.6789  167.7079 F       1  UNL1       -0.1659
     32 C         140.3902  142.2745  167.5529 C.3     1  UNL1        0.4186
     33 F         140.8066  143.3598  168.5008 F       1  UNL1       -0.1659
     34 F         139.9117  141.4480  168.7096 F       1  UNL1       -0.1659
     35 F         140.8687  143.1011  166.3962 F       1  UNL1       -0.1659
@<TRIPOS>UNITY_ATOM_ATTR
19 1
charge -1
@<TRIPOS>BOND
     1    19    20   ar
     2    20    21   ar
     3    20    18    1
     4    18    17    1
     5    17     6    1
     6     6     7    2
     7     6     8   am
     8     8     9    1
     9     9    10    1
    10    10    11    1
    11    11    12   ar
    12    12    13   ar
    13    13     1    1
    14     1     2   ar
    15     2     3   ar
    16     3     4   ar
    17     4    22    1
    18    22    23   ar
    19    23    24   ar
    20    24    28    1
    21    28    29    1
    22    28    30    1
    23    28    31    1
    24    24    25   ar
    25    25    26   ar
    26    26    32    1
    27    32    33    1
    28    32    34    1
    29    32    35    1
    30    26    27   ar
    31     4     5   ar
    32    13    14   ar
    33    14    15   ar
    34    15    16   ar
    35    16     8    1
    36    16    11   ar
    37     5     1   ar
    38    27    22   ar
@<TRIPOS>MOLECULE
*****
 35 38 0 0 0
SMALL
GASTEIGER

@<TRIPOS>ATOM
      1 C         142.9202  138.9632  160.5264 C.ar    1  UNL1        0.2036
      2 N         143.8837  139.6379  159.5956 N.ar    1  UNL1       -0.0556
      3 O         143.7323  139.0143  158.2398 O.2     1  UNL1       -0.3324
      4 C         142.6751  137.9542  158.3326 C.ar    1  UNL1        0.2600
      5 N         142.1732  137.9226  159.7458 N.ar    1  UNL1       -0.1870
      6 C         142.4510  139.8934  167.5653 C.2     1  UNL1        0.2297
      7 O         143.3393  138.6859  167.6146 O.2     1  UNL1       -0.2745
      8 N         142.0064  140.4441  166.2428 N.am    1  UNL1       -0.2586
      9 C         141.1229  141.6387  166.0371 C.3     1  UNL1        0.1029
     10 C         140.9378  141.8297  164.5609 C.3     1  UNL1        0.0495
     11 C         141.7069  140.7531  163.8542 C.ar    1  UNL1       -0.0067
     12 C         141.8912  140.4419  162.3984 C.ar    1  UNL1        0.0002
     13 C         142.7359  139.2744  161.9822 C.ar    1  UNL1        0.0389
     14 C         143.3963  138.4181  163.0216 C.ar    1  UNL1        0.0044
     15 C         143.2121  138.7292  164.4774 C.ar    1  UNL1        0.0147
     16 C         142.3674  139.8967  164.8936 C.ar    1  UNL1        0.0499
     17 C         142.0072  140.5505  168.8387 C.3     1  UNL1        0.0915
     18 C         141.4520  139.7197  169.9574 C.3     1  UNL1        0.0513
     19 O         140.6844  141.3220  171.8531 O.co2   1  UNL1       -0.5492
     20 C         140.3651  140.2702  170.8323 C.2     1  UNL1        0.0508
     21 O         138.9589  139.7690  170.6865 O.co2   1  UNL1       -0.5492
     22 C         142.2028  137.0793  157.2095 C.ar    1  UNL1        0.0560
     23 C         140.9735  137.4517  156.4347 C.ar    1  UNL1        0.0086
     24 C         140.5012  136.5769  155.3116 C.ar    1  UNL1        0.0715
     25 C         141.2581  135.3295  154.9632 C.ar    1  UNL1        0.0077
     26 C         142.4873  134.9571  155.7380 C.ar    1  UNL1        0.0715
     27 C         142.9597  135.8320  156.8611 C.ar    1  UNL1        0.0086
     28 C         139.2720  136.9493  154.5368 C.3     1  UNL1        0.4186
     29 F         138.0427  137.3218  153.7621 F       1  UNL1       -0.1659
     30 F         139.7362  136.0991  153.3915 F       1  UNL1       -0.1659
     31 F         138.8078  137.7996  155.6821 F       1  UNL1       -0.1659
     32 C         143.2442  133.7098  155.3896 C.3     1  UNL1        0.4186
     33 F         144.0011  132.4625  155.0413 F       1  UNL1       -0.1659
     34 F         144.0203  133.8236  156.6682 F       1  UNL1       -0.1659
     35 F         142.4681  133.5959  154.1111 F       1  UNL1       -0.1659
@<TRIPOS>UNITY_ATOM_ATTR
19 1
charge -1
@<TRIPOS>BOND
     1    19    20   ar
     2    20    21   ar
     3    20    18    1
     4    18    17    1
     5    17     6    1
     6     6     7    2
     7     6     8   am
     8     8     9    1
     9     9    10    1
    10    10    11    1
    11    11    12   ar
    12    12    13   ar
    13    13     1    1
    14     1     2   ar
    15     2     3   ar
    16     3     4   ar
    17     4    22    1
    18    22    23   ar
    19    23    24   ar
    20    24    28    1
    21    28    29    1
    22    28    30    1
    23    28    31    1
    24    24    25   ar
    25    25    26   ar
    26    26    32    1
    27    32    33    1
    28    32    34    1
    29    32    35    1
    30    26    27   ar
    31     4     5   ar
    32    13    14   ar
    33    14    15   ar
    34    15    16   ar
    35    16     8    1
    36    16    11   ar
    37     5     1   ar
    38    27    22   ar
@<TRIPOS>MOLECULE
*****
 35 38 0 0 0
SMALL
GASTEIGER

@<TRIPOS>ATOM
      1 C         140.6680  138.8276  160.9789 C.ar    1  UNL1        0.2036
      2 N         139.5136  138.8804  160.0225 N.ar    1  UNL1       -0.0556
      3 O         140.0290  138.5430  158.6548 O.2     1  UNL1       -0.3324
      4 C         141.5019  138.2817  158.7659 C.ar    1  UNL1        0.2600
      5 N         141.8968  138.4576  160.2022 N.ar    1  UNL1       -0.1870
      6 C         141.0049  140.3744  167.9162 C.2     1  UNL1        0.2297
      7 O         142.3656  140.8967  167.5617 O.2     1  UNL1       -0.2745
      8 N         140.1301  139.7783  166.8535 N.am    1  UNL1       -0.2586
      9 C         138.7533  139.2184  167.0565 C.3     1  UNL1        0.1029
     10 C         138.2508  138.7314  165.7298 C.3     1  UNL1        0.0495
     11 C         139.3169  138.9902  164.7068 C.ar    1  UNL1       -0.0067
     12 C         139.3801  138.7204  163.2327 C.ar    1  UNL1        0.0002
     13 C         140.6048  139.0975  162.4531 C.ar    1  UNL1        0.0389
     14 C         141.7663  139.7445  163.1476 C.ar    1  UNL1        0.0044
     15 C         141.7031  140.0143  164.6217 C.ar    1  UNL1        0.0147
     16 C         140.4784  139.6372  165.4014 C.ar    1  UNL1        0.0499
     17 C         140.5191  140.4484  169.3334 C.3     1  UNL1        0.0915
     18 C         139.5834  141.5446  169.7493 C.3     1  UNL1        0.0513
     19 O         140.5842  142.1807  172.0610 O.co2   1  UNL1       -0.5492
     20 C         140.0386  142.5892  170.7248 C.2     1  UNL1        0.0508
     21 O         139.9481  144.0423  170.3640 O.co2   1  UNL1       -0.5492
     22 C         142.4188  137.9098  157.6385 C.ar    1  UNL1        0.0560
     23 C         142.6139  136.4677  157.2751 C.ar    1  UNL1        0.0086
     24 C         143.5309  136.0958  156.1478 C.ar    1  UNL1        0.0715
     25 C         144.2527  137.1661  155.3839 C.ar    1  UNL1        0.0077
     26 C         144.0576  138.6082  155.7473 C.ar    1  UNL1        0.0715
     27 C         143.1406  138.9801  156.8746 C.ar    1  UNL1        0.0086
     28 C         143.7260  134.6536  155.7843 C.3     1  UNL1        0.4186
     29 F         143.9211  133.2115  155.4208 F       1  UNL1       -0.1659
     30 F         144.1689  134.3600  157.1870 F       1  UNL1       -0.1659
     31 F         143.2830  134.9473  154.3816 F       1  UNL1       -0.1659
     32 C         144.7794  139.6785  154.9834 C.3     1  UNL1        0.4186
     33 F         145.5012  140.7487  154.2196 F       1  UNL1       -0.1659
     34 F         145.5487  140.0415  156.2189 F       1  UNL1       -0.1659
     35 F         144.0101  139.3155  153.7479 F       1  UNL1       -0.1659
@<TRIPOS>UNITY_ATOM_ATTR
19 1
charge -1
@<TRIPOS>BOND
     1    19    20   ar
     2    20    21   ar
     3    20    18    1
     4    18    17    1
     5    17     6    1
     6     6     7    2
     7     6     8   am
     8     8     9    1
     9     9    10    1
    10    10    11    1
    11    11    12   ar
    12    12    13   ar
    13    13     1    1
    14     1     2   ar
    15     2     3   ar
    16     3     4   ar
    17     4    22    1
    18    22    23   ar
    19    23    24   ar
    20    24    28    1
    21    28    29    1
    22    28    30    1
    23    28    31    1
    24    24    25   ar
    25    25    26   ar
    26    26    32    1
    27    32    33    1
    28    32    34    1
    29    32    35    1
    30    26    27   ar
    31     4     5   ar
    32    13    14   ar
    33    14    15   ar
    34    15    16   ar
    35    16     8    1
    36    16    11   ar
    37     5     1   ar
    38    27    22   ar
@<TRIPOS>MOLECULE
*****
 35 38 0 0 0
SMALL
GASTEIGER

@<TRIPOS>ATOM
      1 C         140.8323  144.0245  161.0422 C.ar    1  UNL1        0.2036
      2 N         142.0893  144.6854  160.5593 N.ar    1  UNL1       -0.0556
      3 O         141.8340  145.2147  159.1792 O.2     1  UNL1       -0.3324
      4 C         140.4192  144.8810  158.8091 C.ar    1  UNL1        0.2600
      5 N         139.8001  144.1454  159.9605 N.ar    1  UNL1       -0.1870
      6 C         140.4602  141.2465  167.5825 C.2     1  UNL1        0.2297
      7 O         141.6262  142.1510  167.8506 O.2     1  UNL1       -0.2745
      8 N         139.8318  141.2163  166.2208 N.am    1  UNL1       -0.2586
      9 C         138.6667  140.3676  165.8060 C.3     1  UNL1        0.1029
     10 C         138.3731  140.6564  164.3636 C.3     1  UNL1        0.0495
     11 C         139.3568  141.6836  163.8870 C.ar    1  UNL1       -0.0067
     12 C         139.5481  142.3486  162.5561 C.ar    1  UNL1        0.0002
     13 C         140.6409  143.3595  162.3731 C.ar    1  UNL1        0.0389
     14 C         141.5425  143.7056  163.5209 C.ar    1  UNL1        0.0044
     15 C         141.3512  143.0407  164.8517 C.ar    1  UNL1        0.0147
     16 C         140.2584  142.0297  165.0348 C.ar    1  UNL1        0.0499
     17 C         139.9224  140.3719  168.6762 C.3     1  UNL1        0.0915
     18 C         139.5904  140.9630  170.0142 C.3     1  UNL1        0.0513
     19 O         141.9804  140.4603  170.9002 O.co2   1  UNL1       -0.5492
     20 C         140.6762  141.1908  171.0237 C.2     1  UNL1        0.0508
     21 O         140.4577  142.1494  172.1566 O.co2   1  UNL1       -0.5492
     22 C         139.7423  145.2228  157.5149 C.ar    1  UNL1        0.0560
     23 C         139.7874  146.6285  156.9933 C.ar    1  UNL1        0.0086
     24 C         139.1106  146.9703  155.6991 C.ar    1  UNL1        0.0715
     25 C         138.3887  145.9064  154.9264 C.ar    1  UNL1        0.0077
     26 C         138.3436  144.5008  155.4480 C.ar    1  UNL1        0.0715
     27 C         139.0204  144.1589  156.7422 C.ar    1  UNL1        0.0086
     28 C         139.1557  148.3760  155.1776 C.3     1  UNL1        0.4186
     29 F         139.2008  149.7817  154.6562 F       1  UNL1       -0.1659
     30 F         139.7820  147.8844  153.9064 F       1  UNL1       -0.1659
     31 F         138.5294  148.8677  156.4489 F       1  UNL1       -0.1659
     32 C         137.6216  143.4369  154.6753 C.3     1  UNL1        0.4186
     33 F         136.8997  142.3731  153.9026 F       1  UNL1       -0.1659
     34 F         138.8726  143.1526  153.8979 F       1  UNL1       -0.1659
     35 F         136.3706  143.7212  155.4526 F       1  UNL1       -0.1659
@<TRIPOS>UNITY_ATOM_ATTR
19 1
charge -1
@<TRIPOS>BOND
     1    19    20   ar
     2    20    21   ar
     3    20    18    1
     4    18    17    1
     5    17     6    1
     6     6     7    2
     7     6     8   am
     8     8     9    1
     9     9    10    1
    10    10    11    1
    11    11    12   ar
    12    12    13   ar
    13    13     1    1
    14     1     2   ar
    15     2     3   ar
    16     3     4   ar
    17     4    22    1
    18    22    23   ar
    19    23    24   ar
    20    24    28    1
    21    28    29    1
    22    28    30    1
    23    28    31    1
    24    24    25   ar
    25    25    26   ar
    26    26    32    1
    27    32    33    1
    28    32    34    1
    29    32    35    1
    30    26    27   ar
    31     4     5   ar
    32    13    14   ar
    33    14    15   ar
    34    15    16   ar
    35    16     8    1
    36    16    11   ar
    37     5     1   ar
    38    27    22   ar
@<TRIPOS>MOLECULE
*****
 35 38 0 0 0
SMALL
GASTEIGER

@<TRIPOS>ATOM
      1 C         140.3642  144.4132  162.5694 C.ar    1  UNL1        0.2036
      2 N         139.5393  145.6588  162.4357 N.ar    1  UNL1       -0.0556
      3 O         139.5964  146.1011  161.0035 O.2     1  UNL1       -0.3324
      4 C         140.4566  145.1287  160.2521 C.ar    1  UNL1        0.2600
      5 N         140.9311  144.0856  161.2199 N.ar    1  UNL1       -0.1870
      6 C         140.7287  140.5600  168.5404 C.2     1  UNL1        0.2297
      7 O         139.2591  140.3704  168.3079 O.2     1  UNL1       -0.2745
      8 N         141.5398  141.3812  167.5824 N.am    1  UNL1       -0.2586
      9 C         143.0107  141.6574  167.6840 C.3     1  UNL1        0.1029
     10 C         143.4023  142.5172  166.5190 C.3     1  UNL1        0.0495
     11 C         142.1736  142.7724  165.6973 C.ar    1  UNL1       -0.0067
     12 C         141.9542  143.5533  164.4356 C.ar    1  UNL1        0.0002
     13 C         140.5837  143.6322  163.8312 C.ar    1  UNL1        0.0389
     14 C         139.4325  142.9301  164.4884 C.ar    1  UNL1        0.0044
     15 C         139.6519  142.1491  165.7501 C.ar    1  UNL1        0.0147
     16 C         141.0225  142.0703  166.3546 C.ar    1  UNL1        0.0499
     17 C         141.3873  139.9284  169.7310 C.3     1  UNL1        0.0915
     18 C         141.4340  140.6614  171.0389 C.3     1  UNL1        0.0513
     19 O         139.8426  142.6914  171.3493 O.co2   1  UNL1       -0.5492
     20 C         141.2122  142.1444  171.0758 C.2     1  UNL1        0.0508
     21 O         142.3602  143.0805  170.8391 O.co2   1  UNL1       -0.5492
     22 C         140.7847  145.1890  158.7896 C.ar    1  UNL1        0.0560
     23 C         141.8291  144.2771  158.2171 C.ar    1  UNL1        0.0086
     24 C         142.1571  144.3374  156.7547 C.ar    1  UNL1        0.0715
     25 C         141.4409  145.3096  155.8648 C.ar    1  UNL1        0.0077
     26 C         140.3965  146.2214  156.4373 C.ar    1  UNL1        0.0715
     27 C         140.0684  146.1612  157.8998 C.ar    1  UNL1        0.0086
     28 C         143.2015  143.4255  156.1822 C.3     1  UNL1        0.4186
     29 F         144.2459  142.5136  155.6098 F       1  UNL1       -0.1659
     30 F         142.7478  143.7760  154.7961 F       1  UNL1       -0.1659
     31 F         143.6553  143.0750  157.5683 F       1  UNL1       -0.1659
     32 C         139.6802  147.1936  155.5474 C.3     1  UNL1        0.4186
     33 F         138.9640  148.1657  154.6576 F       1  UNL1       -0.1659
     34 F         140.4732  146.7025  154.3727 F       1  UNL1       -0.1659
     35 F         138.8872  147.6847  156.7222 F       1  UNL1       -0.1659
@<TRIPOS>UNITY_ATOM_ATTR
19 1
charge -1
@<TRIPOS>BOND
     1    19    20   ar
     2    20    21   ar
     3    20    18    1
     4    18    17    1
     5    17     6    1
     6     6     7    2
     7     6     8   am
     8     8     9    1
     9     9    10    1
    10    10    11    1
    11    11    12   ar
    12    12    13   ar
    13    13     1    1
    14     1     2   ar
    15     2     3   ar
    16     3     4   ar
    17     4    22    1
    18    22    23   ar
    19    23    24   ar
    20    24    28    1
    21    28    29    1
    22    28    30    1
    23    28    31    1
    24    24    25   ar
    25    25    26   ar
    26    26    32    1
    27    32    33    1
    28    32    34    1
    29    32    35    1
    30    26    27   ar
    31     4     5   ar
    32    13    14   ar
    33    14    15   ar
    34    15    16   ar
    35    16     8    1
    36    16    11   ar
    37     5     1   ar
    38    27    22   ar
@<TRIPOS>MOLECULE
*****
 35 38 0 0 0
SMALL
GASTEIGER

@<TRIPOS>ATOM
      1 C         140.5736  138.7596  161.0550 C.ar    1  UNL1        0.2036
      2 N         139.4078  138.6722  160.1153 N.ar    1  UNL1       -0.0556
      3 O         139.9373  138.3573  158.7477 O.2     1  UNL1       -0.3324
      4 C         141.4305  138.2500  158.8421 C.ar    1  UNL1        0.2600
      5 N         141.8238  138.4986  160.2681 N.ar    1  UNL1       -0.1870
      6 C         139.6265  139.8317  168.0253 C.2     1  UNL1        0.2297
      7 O         138.3503  139.0774  167.7968 O.2     1  UNL1       -0.2745
      8 N         140.5630  140.0855  166.8814 N.am    1  UNL1       -0.2586
      9 C         141.8682  140.8208  166.9569 C.3     1  UNL1        0.1029
     10 C         142.4705  140.8381  165.5833 C.3     1  UNL1        0.0495
     11 C         141.5376  140.1136  164.6588 C.ar    1  UNL1       -0.0067
     12 C         141.6092  139.8173  163.1901 C.ar    1  UNL1        0.0002
     13 C         140.5020  139.0559  162.5237 C.ar    1  UNL1        0.0389
     14 C         139.3230  138.5907  163.3260 C.ar    1  UNL1        0.0044
     15 C         139.2514  138.8870  164.7947 C.ar    1  UNL1        0.0147
     16 C         140.3586  139.6484  165.4611 C.ar    1  UNL1        0.0499
     17 C         139.9662  140.3324  169.3980 C.3     1  UNL1        0.0915
     18 C         139.6067  141.7333  169.7956 C.3     1  UNL1        0.0513
     19 O         140.5462  142.0925  172.1911 O.co2   1  UNL1       -0.5492
     20 C         140.4845  142.4917  170.7465 C.2     1  UNL1        0.0508
     21 O         141.3008  143.6492  170.2527 O.co2   1  UNL1       -0.5492
     22 C         142.3662  137.9472  157.7095 C.ar    1  UNL1        0.0560
     23 C         143.0995  139.0619  157.0241 C.ar    1  UNL1        0.0086
     24 C         144.0352  138.7591  155.8915 C.ar    1  UNL1        0.0715
     25 C         144.2374  137.3417  155.4442 C.ar    1  UNL1        0.0077
     26 C         143.5041  136.2270  156.1296 C.ar    1  UNL1        0.0715
     27 C         142.5684  136.5298  157.2622 C.ar    1  UNL1        0.0086
     28 C         144.7685  139.8737  155.2061 C.3     1  UNL1        0.4186
     29 F         145.5019  140.9883  154.5207 F       1  UNL1       -0.1659
     30 F         144.5937  140.7359  156.4210 F       1  UNL1       -0.1659
     31 F         144.9434  139.0116  153.9911 F       1  UNL1       -0.1659
     32 C         143.7063  134.8096  155.6823 C.3     1  UNL1        0.4186
     33 F         143.9086  133.3923  155.2350 F       1  UNL1       -0.1659
     34 F         144.1535  134.4371  157.0648 F       1  UNL1       -0.1659
     35 F         143.2591  135.1821  154.2998 F       1  UNL1       -0.1659
@<TRIPOS>UNITY_ATOM_ATTR
19 1
charge -1
@<TRIPOS>BOND
     1    19    20   ar
     2    20    21   ar
     3    20    18    1
     4    18    17    1
     5    17     6    1
     6     6     7    2
     7     6     8   am
     8     8     9    1
     9     9    10    1
    10    10    11    1
    11    11    12   ar
    12    12    13   ar
    13    13     1    1
    14     1     2   ar
    15     2     3   ar
    16     3     4   ar
    17     4    22    1
    18    22    23   ar
    19    23    24   ar
    20    24    28    1
    21    28    29    1
    22    28    30    1
    23    28    31    1
    24    24    25   ar
    25    25    26   ar
    26    26    32    1
    27    32    33    1
    28    32    34    1
    29    32    35    1
    30    26    27   ar
    31     4     5   ar
    32    13    14   ar
    33    14    15   ar
    34    15    16   ar
    35    16     8    1
    36    16    11   ar
    37     5     1   ar
    38    27    22   ar
