@<TRIPOS>MOLECULE
*****
 29 33 0 0 0
SMALL
GASTEIGER

@<TRIPOS>ATOM
      1 C         142.1612  138.4271  163.1630 C.3     1  UNL1        0.0294
      2 C         143.4665  138.8449  163.7728 C.3     1  UNL1        0.0666
      3 S         144.0984  140.1456  163.3740 S.3     1  UNL1       -0.0756
      4 C         141.9333  143.3593  163.1532 C.ar    1  UNL1        0.2029
      5 N         142.4641  143.4630  164.5523 N.ar    1  UNL1       -0.1250
      6 N         143.3398  142.2718  164.8053 N.ar    1  UNL1       -0.1220
      7 C         143.3501  141.4318  163.5626 C.ar    1  UNL1        0.1933
      8 N         142.4808  142.1040  162.5416 N.ar    1  UNL1       -0.2860
      9 C         142.2072  141.6078  161.1527 C.3     1  UNL1        0.1341
     10 C         139.1207  144.4893  164.3624 C.3     1  UNL1        0.0556
     11 C         139.7231  144.8584  163.0392 C.ar    1  UNL1        0.1001
     12 N         139.1384  145.8117  162.0395 N.ar    1  UNL1       -0.2085
     13 C         140.0699  145.8814  160.8658 C.ar    1  UNL1        0.2849
     14 O         141.2302  144.9713  161.1401 O.2     1  UNL1       -0.4283
     15 C         141.0158  144.3390  162.4834 C.ar    1  UNL1        0.1964
     16 C         141.2927  137.4249  163.8638 C.3     1  UNL1        0.0730
     17 N         140.2591  137.8864  164.8481 N.3     1  UNL1       -0.2724
     18 C         138.9044  137.2766  165.0550 C.3     1  UNL1        0.0724
     19 C         138.2068  138.0520  166.1331 C.3     1  UNL1        0.0214
     20 C         137.7736  138.9961  167.2152 C.3     1  UNL1        0.0072
     21 C         139.1305  139.1410  166.5924 C.3     1  UNL1        0.0350
     22 C         140.3988  139.0386  165.7982 C.3     1  UNL1        0.0761
     23 C         139.5539  140.3235  167.4124 C.ar    1  UNL1       -0.0214
     24 C         140.1088  141.5433  166.7386 C.ar    1  UNL1       -0.0034
     25 C         140.5322  142.7259  167.5586 C.ar    1  UNL1        0.0111
     26 C         140.4007  142.6886  169.0524 C.ar    1  UNL1        0.0577
     27 CL        140.8242  143.8711  169.8723 Cl      1  UNL1       -0.0822
     28 C         139.8458  141.4686  169.7262 C.ar    1  UNL1        0.0111
     29 C         139.4224  140.2861  168.9062 C.ar    1  UNL1       -0.0034
@<TRIPOS>BOND
     1    10    11    1
     2    11    12   ar
     3    12    13   ar
     4    13    14   ar
     5    14    15   ar
     6    15     4    1
     7     4     5   ar
     8     5     6   ar
     9     6     7   ar
    10     7     3    1
    11     3     2    1
    12     2     1    1
    13     1    16    1
    14    16    17    1
    15    17    18    1
    16    18    19    1
    17    19    20    1
    18    20    21    1
    19    21    23    1
    20    23    24   ar
    21    24    25   ar
    22    25    26   ar
    23    26    27    1
    24    26    28   ar
    25    28    29   ar
    26    21    22    1
    27     7     8   ar
    28     8     9    1
    29    15    11   ar
    30     8     4   ar
    31    22    17    1
    32    21    19    1
    33    29    23   ar
@<TRIPOS>MOLECULE
*****
 29 33 0 0 0
SMALL
GASTEIGER

@<TRIPOS>ATOM
      1 C         143.6291  138.4253  162.2023 C.3     1  UNL1        0.0294
      2 C         142.1896  138.4577  162.6229 C.3     1  UNL1        0.0666
      3 S         141.7554  137.7409  163.8670 S.3     1  UNL1       -0.0756
      4 C         141.9523  139.3888  167.3756 C.ar    1  UNL1        0.2029
      5 N         143.3626  138.9085  167.2014 N.ar    1  UNL1       -0.1250
      6 N         143.4605  138.2327  165.8660 N.ar    1  UNL1       -0.1220
      7 C         142.1107  138.2954  165.2147 C.ar    1  UNL1        0.1933
      8 N         141.1786  139.0099  166.1478 N.ar    1  UNL1       -0.2860
      9 C         139.7275  139.2954  165.8969 C.3     1  UNL1        0.1341
     10 C         143.2003  142.1016  168.6922 C.3     1  UNL1        0.0556
     11 C         141.9844  141.3666  169.1735 C.ar    1  UNL1        0.1001
     12 N         141.1287  141.7496  170.3444 N.ar    1  UNL1       -0.2085
     13 C         140.0263  140.7394  170.4629 C.ar    1  UNL1        0.2849
     14 O         140.2006  139.7322  169.3653 O.2     1  UNL1       -0.4283
     15 C         141.4108  140.1198  168.5684 C.ar    1  UNL1        0.1964
     16 C         144.3460  139.7035  161.8828 C.3     1  UNL1        0.0730
     17 N         144.3530  140.8279  162.8756 N.3     1  UNL1       -0.2724
     18 C         145.5603  141.3804  163.5736 C.3     1  UNL1        0.0724
     19 C         145.1073  142.4912  164.4741 C.3     1  UNL1        0.0214
     20 C         144.3697  143.5319  165.2633 C.3     1  UNL1        0.0072
     21 C         143.6200  142.6252  164.3328 C.3     1  UNL1        0.0350
     22 C         143.1538  141.5972  163.3449 C.3     1  UNL1        0.0761
     23 C         142.2641  143.2049  164.6075 C.ar    1  UNL1       -0.0214
     24 C         141.4121  142.6340  165.7021 C.ar    1  UNL1       -0.0034
     25 C         140.0562  143.2137  165.9769 C.ar    1  UNL1        0.0111
     26 C         139.5523  144.3644  165.1570 C.ar    1  UNL1        0.0577
     27 CL        138.1964  144.9441  165.4317 Cl      1  UNL1       -0.0822
     28 C         140.4044  144.9353  164.0624 C.ar    1  UNL1        0.0111
     29 C         141.7603  144.3556  163.7877 C.ar    1  UNL1       -0.0034
@<TRIPOS>BOND
     1    10    11    1
     2    11    12   ar
     3    12    13   ar
     4    13    14   ar
     5    14    15   ar
     6    15     4    1
     7     4     5   ar
     8     5     6   ar
     9     6     7   ar
    10     7     3    1
    11     3     2    1
    12     2     1    1
    13     1    16    1
    14    16    17    1
    15    17    18    1
    16    18    19    1
    17    19    20    1
    18    20    21    1
    19    21    23    1
    20    23    24   ar
    21    24    25   ar
    22    25    26   ar
    23    26    27    1
    24    26    28   ar
    25    28    29   ar
    26    21    22    1
    27     7     8   ar
    28     8     9    1
    29    15    11   ar
    30     8     4   ar
    31    22    17    1
    32    21    19    1
    33    29    23   ar
@<TRIPOS>MOLECULE
*****
 29 33 0 0 0
SMALL
GASTEIGER

@<TRIPOS>ATOM
      1 C         145.5163  140.9208  163.9103 C.3     1  UNL1        0.0294
      2 C         145.4401  142.0409  162.9156 C.3     1  UNL1        0.0666
      3 S         144.4980  143.1854  163.1457 S.3     1  UNL1       -0.0756
      4 C         140.7584  142.2957  163.6825 C.ar    1  UNL1        0.2029
      5 N         141.1511  142.7405  165.0601 N.ar    1  UNL1       -0.1250
      6 N         142.5998  143.1279  165.0267 N.ar    1  UNL1       -0.1220
      7 C         143.1024  142.9226  163.6284 C.ar    1  UNL1        0.1933
      8 N         141.9643  142.4082  162.7977 N.ar    1  UNL1       -0.2860
      9 C         142.0221  142.0664  161.3383 C.3     1  UNL1        0.1341
     10 C         137.9390  143.8548  164.2020 C.3     1  UNL1        0.0556
     11 C         138.1025  142.5382  163.5021 C.ar    1  UNL1        0.1001
     12 N         136.9987  141.7071  162.9181 N.ar    1  UNL1       -0.2085
     13 C         137.6125  140.4768  162.3184 C.ar    1  UNL1        0.2849
     14 O         139.0955  140.5475  162.5317 O.2     1  UNL1       -0.4283
     15 C         139.3983  141.8216  163.2633 C.ar    1  UNL1        0.1964
     16 C         144.8568  139.6070  163.6123 C.3     1  UNL1        0.0730
     17 N         143.4814  139.3218  164.1386 N.3     1  UNL1       -0.2724
     18 C         142.3555  138.6959  163.3701 C.3     1  UNL1        0.0724
     19 C         141.1687  138.5997  164.2824 C.3     1  UNL1        0.0214
     20 C         140.1738  138.6359  165.4043 C.3     1  UNL1        0.0072
     21 C         141.5611  139.1661  165.6147 C.3     1  UNL1        0.0350
     22 C         142.9904  139.6124  165.5258 C.3     1  UNL1        0.0761
     23 C         141.3601  139.5676  167.0459 C.ar    1  UNL1       -0.0214
     24 C         140.0069  140.0106  167.5177 C.ar    1  UNL1       -0.0034
     25 C         139.8059  140.4121  168.9489 C.ar    1  UNL1        0.0111
     26 C         140.9582  140.3707  169.9084 C.ar    1  UNL1        0.0577
     27 CL        140.7572  140.7722  171.3396 Cl      1  UNL1       -0.0822
     28 C         142.3115  139.9277  169.4366 C.ar    1  UNL1        0.0111
     29 C         142.5124  139.5262  168.0054 C.ar    1  UNL1       -0.0034
@<TRIPOS>BOND
     1    10    11    1
     2    11    12   ar
     3    12    13   ar
     4    13    14   ar
     5    14    15   ar
     6    15     4    1
     7     4     5   ar
     8     5     6   ar
     9     6     7   ar
    10     7     3    1
    11     3     2    1
    12     2     1    1
    13     1    16    1
    14    16    17    1
    15    17    18    1
    16    18    19    1
    17    19    20    1
    18    20    21    1
    19    21    23    1
    20    23    24   ar
    21    24    25   ar
    22    25    26   ar
    23    26    27    1
    24    26    28   ar
    25    28    29   ar
    26    21    22    1
    27     7     8   ar
    28     8     9    1
    29    15    11   ar
    30     8     4   ar
    31    22    17    1
    32    21    19    1
    33    29    23   ar
@<TRIPOS>MOLECULE
*****
 29 33 0 0 0
SMALL
GASTEIGER

@<TRIPOS>ATOM
      1 C         138.9989  137.5784  164.6549 C.3     1  UNL1        0.0294
      2 C         138.4199  137.6970  163.2762 C.3     1  UNL1        0.0666
      3 S         139.3083  138.0373  162.1164 S.3     1  UNL1       -0.0756
      4 C         142.1039  140.6949  162.5487 C.ar    1  UNL1        0.2029
      5 N         140.9904  141.5331  161.9943 N.ar    1  UNL1       -0.1250
      6 N         139.8077  140.6397  161.7649 N.ar    1  UNL1       -0.1220
      7 C         140.1902  139.2492  162.1775 C.ar    1  UNL1        0.1933
      8 N         141.6094  139.2834  162.6620 N.ar    1  UNL1       -0.2860
      9 C         142.3959  138.1116  163.1704 C.3     1  UNL1        0.1341
     10 C         143.2938  140.9257  165.5787 C.3     1  UNL1        0.0556
     11 C         144.0188  141.2887  164.3167 C.ar    1  UNL1        0.1001
     12 N         145.4180  141.8216  164.2259 N.ar    1  UNL1       -0.2085
     13 C         145.7358  142.0449  162.7771 C.ar    1  UNL1        0.2849
     14 O         144.5331  141.6500  161.9725 O.2     1  UNL1       -0.4283
     15 C         143.4719  141.1827  162.9240 C.ar    1  UNL1        0.1964
     16 C         138.4085  138.3661  165.7866 C.3     1  UNL1        0.0730
     17 N         139.0268  139.6702  166.1954 N.3     1  UNL1       -0.2724
     18 C         139.6605  139.9681  167.5219 C.3     1  UNL1        0.0724
     19 C         140.1452  141.3874  167.4959 C.3     1  UNL1        0.0214
     20 C         140.5136  142.8064  167.1785 C.3     1  UNL1        0.0072
     21 C         139.8111  141.9667  166.1532 C.3     1  UNL1        0.0350
     22 C         139.1199  140.9054  165.3495 C.3     1  UNL1        0.0761
     23 C         139.7574  143.0263  165.0929 C.ar    1  UNL1       -0.0214
     24 C         140.9923  143.8042  164.7467 C.ar    1  UNL1       -0.0034
     25 C         140.9385  144.8639  163.6864 C.ar    1  UNL1        0.0111
     26 C         139.6499  145.1457  162.9722 C.ar    1  UNL1        0.0577
     27 CL        139.5961  146.2053  161.9119 Cl      1  UNL1       -0.0822
     28 C         138.4149  144.3677  163.3184 C.ar    1  UNL1        0.0111
     29 C         138.4687  143.3080  164.3787 C.ar    1  UNL1       -0.0034
@<TRIPOS>BOND
     1    10    11    1
     2    11    12   ar
     3    12    13   ar
     4    13    14   ar
     5    14    15   ar
     6    15     4    1
     7     4     5   ar
     8     5     6   ar
     9     6     7   ar
    10     7     3    1
    11     3     2    1
    12     2     1    1
    13     1    16    1
    14    16    17    1
    15    17    18    1
    16    18    19    1
    17    19    20    1
    18    20    21    1
    19    21    23    1
    20    23    24   ar
    21    24    25   ar
    22    25    26   ar
    23    26    27    1
    24    26    28   ar
    25    28    29   ar
    26    21    22    1
    27     7     8   ar
    28     8     9    1
    29    15    11   ar
    30     8     4   ar
    31    22    17    1
    32    21    19    1
    33    29    23   ar
@<TRIPOS>MOLECULE
*****
 29 33 0 0 0
SMALL
GASTEIGER

@<TRIPOS>ATOM
      1 C         144.1936  143.9538  164.5059 C.3     1  UNL1        0.0294
      2 C         143.4608  144.9053  163.6072 C.3     1  UNL1        0.0666
      3 S         142.5420  144.3773  162.5456 S.3     1  UNL1       -0.0756
      4 C         139.9579  141.4989  162.8644 C.ar    1  UNL1        0.2029
      5 N         139.6155  142.3301  164.0652 N.ar    1  UNL1       -0.1250
      6 N         140.5419  143.5094  164.0920 N.ar    1  UNL1       -0.1220
      7 C         141.4567  143.4072  162.9077 C.ar    1  UNL1        0.1933
      8 N         141.0957  142.1646  162.1490 N.ar    1  UNL1       -0.2860
      9 C         141.7567  141.6740  160.8950 C.3     1  UNL1        0.1341
     10 C         141.2704  138.5124  162.9542 C.3     1  UNL1        0.0556
     11 C         139.8843  138.8529  162.4928 C.ar    1  UNL1        0.1001
     12 N         138.8582  137.8803  161.9916 N.ar    1  UNL1       -0.2085
     13 C         137.6207  138.6519  161.6406 C.ar    1  UNL1        0.2849
     14 O         137.8820  140.1013  161.9248 O.2     1  UNL1       -0.4283
     15 C         139.2810  140.2255  162.4515 C.ar    1  UNL1        0.1964
     16 C         144.7150  142.6576  163.9602 C.3     1  UNL1        0.0730
     17 N         144.3006  141.3592  164.5867 N.3     1  UNL1       -0.2724
     18 C         144.8944  140.0122  164.2988 C.3     1  UNL1        0.0724
     19 C         144.1805  139.0003  165.1452 C.3     1  UNL1        0.0214
     20 C         143.3041  138.2368  166.0933 C.3     1  UNL1        0.0072
     21 C         143.1455  139.7220  165.9563 C.3     1  UNL1        0.0350
     22 C         143.2197  141.1799  165.6111 C.3     1  UNL1        0.0761
     23 C         142.0314  139.8532  166.9521 C.ar    1  UNL1       -0.0214
     24 C         140.6046  139.7791  166.4953 C.ar    1  UNL1       -0.0034
     25 C         139.4904  139.9103  167.4911 C.ar    1  UNL1        0.0111
     26 C         139.8031  140.1156  168.9437 C.ar    1  UNL1        0.0577
     27 CL        138.6891  140.2468  169.9395 Cl      1  UNL1       -0.0822
     28 C         141.2300  140.1898  169.4005 C.ar    1  UNL1        0.0111
     29 C         142.3441  140.0586  168.4047 C.ar    1  UNL1       -0.0034
@<TRIPOS>BOND
     1    10    11    1
     2    11    12   ar
     3    12    13   ar
     4    13    14   ar
     5    14    15   ar
     6    15     4    1
     7     4     5   ar
     8     5     6   ar
     9     6     7   ar
    10     7     3    1
    11     3     2    1
    12     2     1    1
    13     1    16    1
    14    16    17    1
    15    17    18    1
    16    18    19    1
    17    19    20    1
    18    20    21    1
    19    21    23    1
    20    23    24   ar
    21    24    25   ar
    22    25    26   ar
    23    26    27    1
    24    26    28   ar
    25    28    29   ar
    26    21    22    1
    27     7     8   ar
    28     8     9    1
    29    15    11   ar
    30     8     4   ar
    31    22    17    1
    32    21    19    1
    33    29    23   ar
@<TRIPOS>MOLECULE
*****
 29 33 0 0 0
SMALL
GASTEIGER

@<TRIPOS>ATOM
      1 C         141.6411  145.2340  163.3708 C.3     1  UNL1        0.0294
      2 C         140.5891  145.7849  162.4544 C.3     1  UNL1        0.0666
      3 S         139.5997  144.8615  161.8075 S.3     1  UNL1       -0.0756
      4 C         138.6545  141.4776  163.4570 C.ar    1  UNL1        0.2029
      5 N         137.6556  142.3988  164.0923 N.ar    1  UNL1       -0.1250
      6 N         137.8881  143.7785  163.5517 N.ar    1  UNL1       -0.1220
      7 C         139.0307  143.7101  162.5823 C.ar    1  UNL1        0.1933
      8 N         139.5043  142.2880  162.5238 N.ar    1  UNL1       -0.2860
      9 C         140.6303  141.7678  161.6801 C.3     1  UNL1        0.1341
     10 C         139.3571  140.0773  166.3197 C.3     1  UNL1        0.0556
     11 C         139.1042  139.3610  165.0262 C.ar    1  UNL1        0.1001
     12 N         139.1299  137.8752  164.8216 N.ar    1  UNL1       -0.2085
     13 C         138.8229  137.6007  163.3793 C.ar    1  UNL1        0.2849
     14 O         138.6074  138.9166  162.6926 O.2     1  UNL1       -0.4283
     15 C         138.7813  140.0046  163.7105 C.ar    1  UNL1        0.1964
     16 C         142.9718  144.8155  162.8193 C.3     1  UNL1        0.0730
     17 N         143.5203  143.4555  163.1348 N.3     1  UNL1       -0.2724
     18 C         144.4505  142.6576  162.2699 C.3     1  UNL1        0.0724
     19 C         144.7400  141.3636  162.9711 C.3     1  UNL1        0.0214
     20 C         144.8394  140.1849  163.8935 C.3     1  UNL1        0.0072
     21 C         143.9887  141.3617  164.2694 C.3     1  UNL1        0.0350
     22 C         143.2349  142.6546  164.3705 C.3     1  UNL1        0.0761
     23 C         143.5254  140.8069  165.5837 C.ar    1  UNL1       -0.0214
     24 C         143.5357  139.3253  165.8178 C.ar    1  UNL1       -0.0034
     25 C         143.0724  138.7704  167.1322 C.ar    1  UNL1        0.0111
     26 C         142.5989  139.6971  168.2125 C.ar    1  UNL1        0.0577
     27 CL        142.1356  139.1422  169.5268 Cl      1  UNL1       -0.0822
     28 C         142.5887  141.1787  167.9783 C.ar    1  UNL1        0.0111
     29 C         143.0519  141.7336  166.6640 C.ar    1  UNL1       -0.0034
@<TRIPOS>BOND
     1    10    11    1
     2    11    12   ar
     3    12    13   ar
     4    13    14   ar
     5    14    15   ar
     6    15     4    1
     7     4     5   ar
     8     5     6   ar
     9     6     7   ar
    10     7     3    1
    11     3     2    1
    12     2     1    1
    13     1    16    1
    14    16    17    1
    15    17    18    1
    16    18    19    1
    17    19    20    1
    18    20    21    1
    19    21    23    1
    20    23    24   ar
    21    24    25   ar
    22    25    26   ar
    23    26    27    1
    24    26    28   ar
    25    28    29   ar
    26    21    22    1
    27     7     8   ar
    28     8     9    1
    29    15    11   ar
    30     8     4   ar
    31    22    17    1
    32    21    19    1
    33    29    23   ar
@<TRIPOS>MOLECULE
*****
 29 33 0 0 0
SMALL
GASTEIGER

@<TRIPOS>ATOM
      1 C         138.4321  138.0407  165.6817 C.3     1  UNL1        0.0294
      2 C         139.2593  138.2127  164.4423 C.3     1  UNL1        0.0666
      3 S         138.6106  138.6500  163.1624 S.3     1  UNL1       -0.0756
      4 C         138.7649  142.4572  162.4234 C.ar    1  UNL1        0.2029
      5 N         137.2860  142.2484  162.5613 N.ar    1  UNL1       -0.1250
      6 N         137.0481  140.7969  162.8550 N.ar    1  UNL1       -0.1220
      7 C         138.3801  140.1085  162.8985 C.ar    1  UNL1        0.1933
      8 N         139.4411  141.1346  162.6317 N.ar    1  UNL1       -0.2860
      9 C         140.9190  140.8824  162.5820 C.3     1  UNL1        0.1341
     10 C         140.4549  144.2619  164.5533 C.3     1  UNL1        0.0556
     11 C         140.2246  144.5894  163.1077 C.ar    1  UNL1        0.1001
     12 N         140.7306  145.8039  162.3875 N.ar    1  UNL1       -0.2085
     13 C         140.2665  145.7250  160.9632 C.ar    1  UNL1        0.2849
     14 O         139.4737  144.4618  160.8033 O.2     1  UNL1       -0.4283
     15 C         139.4478  143.7599  162.1287 C.ar    1  UNL1        0.1964
     16 C         138.3521  139.1485  166.6898 C.3     1  UNL1        0.0730
     17 N         139.6091  139.7688  167.2238 N.3     1  UNL1       -0.2724
     18 C         139.8881  140.0992  168.6601 C.3     1  UNL1        0.0724
     19 C         141.2593  140.7023  168.7392 C.3     1  UNL1        0.0214
     20 C         142.6321  141.2607  168.5079 C.3     1  UNL1        0.0072
     21 C         141.8277  140.7446  167.3517 C.3     1  UNL1        0.0350
     22 C         140.8079  140.1678  166.4152 C.3     1  UNL1        0.0761
     23 C         142.8583  141.0357  166.3014 C.ar    1  UNL1       -0.0214
     24 C         143.4031  139.9225  165.4564 C.ar    1  UNL1       -0.0034
     25 C         144.4337  140.2135  164.4061 C.ar    1  UNL1        0.0111
     26 C         144.9195  141.6177  164.2007 C.ar    1  UNL1        0.0577
     27 CL        145.9501  141.9088  163.1504 Cl      1  UNL1       -0.0822
     28 C         144.3747  142.7310  165.0458 C.ar    1  UNL1        0.0111
     29 C         143.3441  142.4399  166.0961 C.ar    1  UNL1       -0.0034
@<TRIPOS>BOND
     1    10    11    1
     2    11    12   ar
     3    12    13   ar
     4    13    14   ar
     5    14    15   ar
     6    15     4    1
     7     4     5   ar
     8     5     6   ar
     9     6     7   ar
    10     7     3    1
    11     3     2    1
    12     2     1    1
    13     1    16    1
    14    16    17    1
    15    17    18    1
    16    18    19    1
    17    19    20    1
    18    20    21    1
    19    21    23    1
    20    23    24   ar
    21    24    25   ar
    22    25    26   ar
    23    26    27    1
    24    26    28   ar
    25    28    29   ar
    26    21    22    1
    27     7     8   ar
    28     8     9    1
    29    15    11   ar
    30     8     4   ar
    31    22    17    1
    32    21    19    1
    33    29    23   ar
@<TRIPOS>MOLECULE
*****
 29 33 0 0 0
SMALL
GASTEIGER

@<TRIPOS>ATOM
      1 C         142.6093  138.8370  163.1056 C.3     1  UNL1        0.0294
      2 C         143.6160  138.5339  162.0357 C.3     1  UNL1        0.0666
      3 S         144.0330  139.6060  161.0729 S.3     1  UNL1       -0.0756
      4 C         142.5698  143.1666  161.5686 C.ar    1  UNL1        0.2029
      5 N         143.9581  143.3462  162.1073 N.ar    1  UNL1       -0.1250
      6 N         144.6752  142.0343  161.9872 N.ar    1  UNL1       -0.1220
      7 C         143.7301  141.0438  161.3742 C.ar    1  UNL1        0.1933
      8 N         142.4288  141.7437  161.1155 N.ar    1  UNL1       -0.2860
      9 C         141.2020  141.1285  160.5100 C.3     1  UNL1        0.1341
     10 C         141.4291  144.5551  158.8445 C.3     1  UNL1        0.0556
     11 C         140.9844  144.8625  160.2437 C.ar    1  UNL1        0.1001
     12 N         139.9372  145.8622  160.6364 N.ar    1  UNL1       -0.2085
     13 C         139.8143  145.8418  162.1312 C.ar    1  UNL1        0.2849
     14 O         140.7855  144.8296  162.6623 O.2     1  UNL1       -0.4283
     15 C         141.5086  144.2244  161.4958 C.ar    1  UNL1        0.1964
     16 C         141.5694  137.8183  163.4671 C.3     1  UNL1        0.0730
     17 N         140.5103  138.1529  164.4753 N.3     1  UNL1       -0.2724
     18 C         139.1923  137.4547  164.6343 C.3     1  UNL1        0.0724
     19 C         138.4507  138.1147  165.7588 C.3     1  UNL1        0.0214
     20 C         137.9635  138.9575  166.8999 C.3     1  UNL1        0.0072
     21 C         139.3105  139.2208  166.2949 C.3     1  UNL1        0.0350
     22 C         140.5834  139.2444  165.5016 C.3     1  UNL1        0.0761
     23 C         139.6652  140.3674  167.1946 C.ar    1  UNL1       -0.0214
     24 C         139.5120  140.2299  168.6804 C.ar    1  UNL1       -0.0034
     25 C         139.8667  141.3765  169.5803 C.ar    1  UNL1        0.0111
     26 C         140.3746  142.6605  168.9942 C.ar    1  UNL1        0.0577
     27 CL        140.7293  143.8071  169.8940 Cl      1  UNL1       -0.0822
     28 C         140.5279  142.7979  167.5083 C.ar    1  UNL1        0.0111
     29 C         140.1732  141.6513  166.6086 C.ar    1  UNL1       -0.0034
@<TRIPOS>BOND
     1    10    11    1
     2    11    12   ar
     3    12    13   ar
     4    13    14   ar
     5    14    15   ar
     6    15     4    1
     7     4     5   ar
     8     5     6   ar
     9     6     7   ar
    10     7     3    1
    11     3     2    1
    12     2     1    1
    13     1    16    1
    14    16    17    1
    15    17    18    1
    16    18    19    1
    17    19    20    1
    18    20    21    1
    19    21    23    1
    20    23    24   ar
    21    24    25   ar
    22    25    26   ar
    23    26    27    1
    24    26    28   ar
    25    28    29   ar
    26    21    22    1
    27     7     8   ar
    28     8     9    1
    29    15    11   ar
    30     8     4   ar
    31    22    17    1
    32    21    19    1
    33    29    23   ar
@<TRIPOS>MOLECULE
*****
 29 33 0 0 0
SMALL
GASTEIGER

@<TRIPOS>ATOM
      1 C         137.8487  139.2132  162.0908 C.3     1  UNL1        0.0294
      2 C         137.5423  139.4390  160.6399 C.3     1  UNL1        0.0666
      3 S         138.4016  140.3610  159.8265 S.3     1  UNL1       -0.0756
      4 C         140.2822  143.2766  161.5665 C.ar    1  UNL1        0.2029
      5 N         139.0320  143.9690  161.1110 N.ar    1  UNL1       -0.1250
      6 N         138.1754  142.9611  160.4038 N.ar    1  UNL1       -0.1220
      7 C         138.8961  141.6457  160.4222 C.ar    1  UNL1        0.1933
      8 N         140.1982  141.8408  161.1408 N.ar    1  UNL1       -0.2860
      9 C         141.2345  140.7852  161.3899 C.3     1  UNL1        0.1341
     10 C         140.0699  144.7884  164.4508 C.3     1  UNL1        0.0556
     11 C         141.3196  144.6039  163.6418 C.ar    1  UNL1        0.1001
     12 N         142.6910  145.0820  164.0167 N.ar    1  UNL1       -0.2085
     13 C         143.6362  144.6825  162.9226 C.ar    1  UNL1        0.2849
     14 O         142.8490  143.9576  161.8717 O.2     1  UNL1       -0.4283
     15 C         141.4172  143.9090  162.3162 C.ar    1  UNL1        0.1964
     16 C         138.6431  138.0125  162.5116 C.3     1  UNL1        0.0730
     17 N         139.7635  138.1623  163.4976 N.3     1  UNL1       -0.2724
     18 C         140.9930  137.3063  163.5719 C.3     1  UNL1        0.0724
     19 C         141.8406  137.8094  164.7026 C.3     1  UNL1        0.0214
     20 C         142.4580  138.5227  165.8688 C.3     1  UNL1        0.0072
     21 C         141.1349  138.9765  165.3272 C.3     1  UNL1        0.0350
     22 C         139.8512  139.1946  164.5824 C.3     1  UNL1        0.0761
     23 C         140.9459  140.1035  166.2988 C.ar    1  UNL1       -0.0214
     24 C         140.1083  139.9026  167.5267 C.ar    1  UNL1       -0.0034
     25 C         139.9193  141.0298  168.4984 C.ar    1  UNL1        0.0111
     26 C         140.5680  142.3577  168.2420 C.ar    1  UNL1        0.0577
     27 CL        140.3791  143.4848  169.2136 Cl      1  UNL1       -0.0822
     28 C         141.4057  142.5586  167.0139 C.ar    1  UNL1        0.0111
     29 C         141.5947  141.4315  166.0424 C.ar    1  UNL1       -0.0034
@<TRIPOS>BOND
     1    10    11    1
     2    11    12   ar
     3    12    13   ar
     4    13    14   ar
     5    14    15   ar
     6    15     4    1
     7     4     5   ar
     8     5     6   ar
     9     6     7   ar
    10     7     3    1
    11     3     2    1
    12     2     1    1
    13     1    16    1
    14    16    17    1
    15    17    18    1
    16    18    19    1
    17    19    20    1
    18    20    21    1
    19    21    23    1
    20    23    24   ar
    21    24    25   ar
    22    25    26   ar
    23    26    27    1
    24    26    28   ar
    25    28    29   ar
    26    21    22    1
    27     7     8   ar
    28     8     9    1
    29    15    11   ar
    30     8     4   ar
    31    22    17    1
    32    21    19    1
    33    29    23   ar
