@<TRIPOS>MOLECULE
*****
 34 38 0 0 0
SMALL
GASTEIGER

@<TRIPOS>ATOM
      1 C         138.6708  137.5628  163.4787 C.3     1  UNL1        0.1301
      2 N         139.5230  138.7823  163.6700 N.ar    1  UNL1       -0.3289
      3 C         139.8007  139.4679  164.9750 C.ar    1  UNL1        0.0331
      4 C         140.6964  140.6396  164.7014 C.ar    1  UNL1       -0.0091
      5 C         140.9723  140.6781  163.2275 C.ar    1  UNL1        0.0130
      6 C         141.7901  141.6101  162.3835 C.ar    1  UNL1        0.0057
      7 C         141.8827  141.3943  160.9020 C.ar    1  UNL1        0.0534
      8 C         141.1575  140.2464  160.2646 C.ar    1  UNL1        0.0060
      9 C         140.3396  139.3143  161.1086 C.ar    1  UNL1        0.0173
     10 C         140.2470  139.5302  162.5901 C.ar    1  UNL1        0.0594
     11 C         141.1452  141.5200  165.8299 C.3     1  UNL1        0.0275
     12 C         140.6982  141.2288  167.2318 C.3     1  UNL1        0.0049
     13 C         139.8025  140.0571  167.5053 C.3     1  UNL1        0.0066
     14 C         139.3537  139.1766  166.3769 C.3     1  UNL1        0.0435
     15 C         141.1470  142.1093  168.3603 C.3     1  UNL1        0.0053
     16 C         142.5070  141.9199  168.9641 C.3     1  UNL1        0.0322
     17 C         142.9558  142.8004  170.0926 C.3     1  UNL1        0.1422
     18 O         142.0446  143.8703  170.6171 O.3     1  UNL1       -0.3538
     19 C         140.6846  144.0596  170.0133 C.3     1  UNL1        0.1422
     20 C         140.2358  143.1792  168.8849 C.3     1  UNL1        0.0322
     21 C         142.7006  142.3263  160.0579 C.2     1  UNL1        0.2458
     22 O         143.9558  142.9331  160.6113 O.2     1  UNL1       -0.2701
     23 N         142.2632  142.6515  158.6605 N.am    1  UNL1       -0.3009
     24 H         141.4394  142.2533  158.2973 H       1  UNL1        0.1497
     25 C         143.0810  143.5835  157.8164 C.3     1  UNL1        0.0902
     26 C         142.4282  144.7551  157.1446 C.3     1  UNL1        0.0308
     27 C         141.6516  145.7485  157.9571 C.3     1  UNL1        0.0868
     28 C         140.9426  145.3075  159.2033 C.2     1  UNL1        0.2225
     29 O         139.6525  144.5487  159.1036 O.2     1  UNL1       -0.2751
     30 N         141.5237  145.6253  160.5491 N.am    1  UNL1       -0.3060
     31 H         142.3704  146.1234  160.6145 H       1  UNL1        0.1494
     32 C         140.8147  145.1844  161.7953 C.3     1  UNL1        0.0717
     33 C         139.6150  144.5799  162.4624 C.3     1  UNL1        0.0213
     34 C         140.7866  145.0250  163.2865 C.3     1  UNL1        0.0213
@<TRIPOS>BOND
     1     1     2    1
     2     2     3   ar
     3     3     4   ar
     4     4     5   ar
     5     5     6   ar
     6     6     7   ar
     7     7    21    1
     8    21    22    2
     9    21    23   am
    10    23    25    1
    11    25    26    1
    12    26    27    1
    13    27    28    1
    14    28    29    2
    15    28    30   am
    16    30    32    1
    17    32    33    1
    18    33    34    1
    19     7     8   ar
    20     8     9   ar
    21     9    10   ar
    22     4    11    1
    23    11    12    1
    24    12    15    1
    25    15    16    1
    26    16    17    1
    27    17    18    1
    28    18    19    1
    29    19    20    1
    30    12    13    1
    31    13    14    1
    32    10     2   ar
    33    20    15    1
    34    14     3    1
    35    10     5   ar
    36    34    32    1
    37    23    24    1
    38    30    31    1
@<TRIPOS>MOLECULE
*****
 34 38 0 0 0
SMALL
GASTEIGER

@<TRIPOS>ATOM
      1 C         138.3745  137.7442  162.6542 C.3     1  UNL1        0.1301
      2 N         138.9055  139.0758  163.0957 N.ar    1  UNL1       -0.3289
      3 C         139.1474  139.5026  164.5132 C.ar    1  UNL1        0.0331
      4 C         139.6792  140.9050  164.4906 C.ar    1  UNL1       -0.0091
      5 C         139.7660  141.3449  163.0592 C.ar    1  UNL1        0.0130
      6 C         140.2186  142.6288  162.4294 C.ar    1  UNL1        0.0057
      7 C         140.1931  142.7822  160.9375 C.ar    1  UNL1        0.0534
      8 C         139.7149  141.6517  160.0754 C.ar    1  UNL1        0.0060
      9 C         139.2622  140.3678  160.7052 C.ar    1  UNL1        0.0173
     10 C         139.2878  140.2144  162.1970 C.ar    1  UNL1        0.0594
     11 C         140.0158  141.6002  165.7764 C.3     1  UNL1        0.0275
     12 C         139.8205  140.8931  167.0848 C.3     1  UNL1        0.0049
     13 C         139.2887  139.4907  167.1074 C.3     1  UNL1        0.0066
     14 C         138.9521  138.7955  165.8215 C.3     1  UNL1        0.0435
     15 C         140.1571  141.5884  168.3707 C.3     1  UNL1        0.0053
     16 C         140.3320  140.7925  169.6300 C.3     1  UNL1        0.0322
     17 C         140.6686  141.4878  170.9159 C.3     1  UNL1        0.1422
     18 O         140.8302  142.9788  170.9423 O.3     1  UNL1       -0.3538
     19 C         140.6553  143.7746  169.6829 C.3     1  UNL1        0.1422
     20 C         140.3187  143.0794  168.3971 C.3     1  UNL1        0.0322
     21 C         140.6458  144.0662  160.3077 C.2     1  UNL1        0.2458
     22 O         141.8327  144.7962  160.8628 O.2     1  UNL1       -0.2701
     23 N         139.9115  144.6200  159.1228 N.am    1  UNL1       -0.3009
     24 H         139.1324  144.1408  158.7585 H       1  UNL1        0.1497
     25 C         140.3641  145.9039  158.4929 C.3     1  UNL1        0.0902
     26 C         140.3599  146.0492  157.0000 C.3     1  UNL1        0.0308
     27 C         139.1692  146.6435  156.3077 C.3     1  UNL1        0.0868
     28 C         139.2952  147.9560  155.5926 C.2     1  UNL1        0.2225
     29 O         139.9427  148.0145  154.2407 O.2     1  UNL1       -0.2751
     30 N         138.7738  149.2101  156.2293 N.am    1  UNL1       -0.3060
     31 H         138.3488  149.1717  157.1165 H       1  UNL1        0.1494
     32 C         138.8998  150.5226  155.5142 C.3     1  UNL1        0.0717
     33 C         139.6916  151.4627  154.6544 C.3     1  UNL1        0.0213
     34 C         138.3263  151.8558  155.1354 C.3     1  UNL1        0.0213
@<TRIPOS>BOND
     1     1     2    1
     2     2     3   ar
     3     3     4   ar
     4     4     5   ar
     5     5     6   ar
     6     6     7   ar
     7     7    21    1
     8    21    22    2
     9    21    23   am
    10    23    25    1
    11    25    26    1
    12    26    27    1
    13    27    28    1
    14    28    29    2
    15    28    30   am
    16    30    32    1
    17    32    33    1
    18    33    34    1
    19     7     8   ar
    20     8     9   ar
    21     9    10   ar
    22     4    11    1
    23    11    12    1
    24    12    15    1
    25    15    16    1
    26    16    17    1
    27    17    18    1
    28    18    19    1
    29    19    20    1
    30    12    13    1
    31    13    14    1
    32    10     2   ar
    33    20    15    1
    34    14     3    1
    35    10     5   ar
    36    34    32    1
    37    23    24    1
    38    30    31    1
@<TRIPOS>MOLECULE
*****
 34 38 0 0 0
SMALL
GASTEIGER

@<TRIPOS>ATOM
      1 C         141.6454  139.8004  154.5787 C.3     1  UNL1        0.1301
      2 N         142.0991  138.9173  155.7031 N.ar    1  UNL1       -0.3289
      3 C         142.4883  137.4732  155.5881 C.ar    1  UNL1        0.0331
      4 C         142.8729  136.9867  156.9538 C.ar    1  UNL1       -0.0091
      5 C         142.7215  138.1300  157.9130 C.ar    1  UNL1        0.0130
      6 C         142.9572  138.2387  159.3903 C.ar    1  UNL1        0.0057
      7 C         142.7148  139.5407  160.0946 C.ar    1  UNL1        0.0534
      8 C         142.2365  140.7338  159.3216 C.ar    1  UNL1        0.0060
      9 C         142.0007  140.6251  157.8443 C.ar    1  UNL1        0.0173
     10 C         142.2432  139.3232  157.1400 C.ar    1  UNL1        0.0594
     11 C         143.3114  135.5654  157.1477 C.3     1  UNL1        0.0275
     12 C         143.3653  134.6306  155.9758 C.3     1  UNL1        0.0049
     13 C         142.9806  135.1172  154.6100 C.3     1  UNL1        0.0066
     14 C         142.5421  136.5385  154.4162 C.3     1  UNL1        0.0435
     15 C         143.8038  133.2092  156.1697 C.3     1  UNL1        0.0053
     16 C         144.4135  132.7836  157.4724 C.3     1  UNL1        0.0322
     17 C         144.8520  131.3622  157.6663 C.3     1  UNL1        0.1422
     18 O         144.6808  130.3667  156.5575 O.3     1  UNL1       -0.3538
     19 C         144.0712  130.7924  155.2547 C.3     1  UNL1        0.1422
     20 C         143.6326  132.2136  155.0608 C.3     1  UNL1        0.0322
     21 C         142.9505  139.6494  161.5720 C.2     1  UNL1        0.2458
     22 O         141.8983  140.2485  162.4573 O.2     1  UNL1       -0.2701
     23 N         144.2386  139.1591  162.1640 N.am    1  UNL1       -0.3009
     24 H         144.9292  138.7659  161.5829 H       1  UNL1        0.1497
     25 C         144.4744  139.2679  163.6413 C.3     1  UNL1        0.0902
     26 C         145.3844  140.3321  164.1792 C.3     1  UNL1        0.0308
     27 C         145.4237  141.6838  163.5299 C.3     1  UNL1        0.0868
     28 C         144.4373  142.7390  163.9342 C.2     1  UNL1        0.2225
     29 O         144.7082  143.5992  165.1328 O.2     1  UNL1       -0.2751
     30 N         143.1799  142.9340  163.1398 N.am    1  UNL1       -0.3060
     31 H         143.0022  142.3694  162.3531 H       1  UNL1        0.1494
     32 C         142.1935  143.9892  163.5440 C.3     1  UNL1        0.0717
     33 C         141.8300  145.4360  163.7005 C.3     1  UNL1        0.0213
     34 C         140.8484  144.3700  164.0877 C.3     1  UNL1        0.0213
@<TRIPOS>BOND
     1     1     2    1
     2     2     3   ar
     3     3     4   ar
     4     4     5   ar
     5     5     6   ar
     6     6     7   ar
     7     7    21    1
     8    21    22    2
     9    21    23   am
    10    23    25    1
    11    25    26    1
    12    26    27    1
    13    27    28    1
    14    28    29    2
    15    28    30   am
    16    30    32    1
    17    32    33    1
    18    33    34    1
    19     7     8   ar
    20     8     9   ar
    21     9    10   ar
    22     4    11    1
    23    11    12    1
    24    12    15    1
    25    15    16    1
    26    16    17    1
    27    17    18    1
    28    18    19    1
    29    19    20    1
    30    12    13    1
    31    13    14    1
    32    10     2   ar
    33    20    15    1
    34    14     3    1
    35    10     5   ar
    36    34    32    1
    37    23    24    1
    38    30    31    1
@<TRIPOS>MOLECULE
*****
 34 38 0 0 0
SMALL
GASTEIGER

@<TRIPOS>ATOM
      1 C         138.7214  137.9893  162.9585 C.3     1  UNL1        0.1301
      2 N         139.3242  139.3321  163.2474 N.ar    1  UNL1       -0.3289
      3 C         139.7143  139.8509  164.5997 C.ar    1  UNL1        0.0331
      4 C         140.2739  141.2313  164.4227 C.ar    1  UNL1       -0.0091
      5 C         140.2298  141.5656  162.9611 C.ar    1  UNL1        0.0130
      6 C         140.6482  142.7871  162.1978 C.ar    1  UNL1        0.0057
      7 C         140.4796  142.8349  160.7081 C.ar    1  UNL1        0.0534
      8 C         139.8927  141.6611  159.9817 C.ar    1  UNL1        0.0060
      9 C         139.4743  140.4395  160.7450 C.ar    1  UNL1        0.0173
     10 C         139.6428  140.3918  162.2347 C.ar    1  UNL1        0.0594
     11 C         140.7515  142.0056  165.6154 C.3     1  UNL1        0.0275
     12 C         140.6693  141.3994  166.9850 C.3     1  UNL1        0.0049
     13 C         140.1097  140.0190  167.1620 C.3     1  UNL1        0.0066
     14 C         139.6322  139.2448  165.9693 C.3     1  UNL1        0.0435
     15 C         141.1469  142.1738  168.1777 C.3     1  UNL1        0.0053
     16 C         140.2484  143.1869  168.8229 C.3     1  UNL1        0.0322
     17 C         140.7260  143.9612  170.0156 C.3     1  UNL1        0.1422
     18 O         142.1019  143.7223  170.5630 O.3     1  UNL1       -0.3538
     19 C         143.0004  142.7092  169.9178 C.3     1  UNL1        0.1422
     20 C         142.5229  141.9349  168.7251 C.3     1  UNL1        0.0322
     21 C         140.8981  144.0565  159.9447 C.2     1  UNL1        0.2458
     22 O         142.3124  144.5480  160.0328 O.2     1  UNL1       -0.2701
     23 N         139.9020  144.7864  159.0932 N.am    1  UNL1       -0.3009
     24 H         138.9737  144.4638  159.0353 H       1  UNL1        0.1497
     25 C         140.3204  146.0079  158.3298 C.3     1  UNL1        0.0902
     26 C         140.4674  145.9465  156.8383 C.3     1  UNL1        0.0308
     27 C         141.7558  145.4768  156.2303 C.3     1  UNL1        0.0868
     28 C         142.2363  144.0778  156.4791 C.2     1  UNL1        0.2225
     29 O         141.4843  142.9134  155.9056 O.2     1  UNL1       -0.2751
     30 N         143.4687  143.8431  157.3012 N.am    1  UNL1       -0.3060
     31 H         143.9622  144.6073  157.6776 H       1  UNL1        0.1494
     32 C         143.9492  142.4441  157.5500 C.3     1  UNL1        0.0717
     33 C         143.7153  141.0691  158.1019 C.3     1  UNL1        0.0213
     34 C         145.0154  141.3960  157.4289 C.3     1  UNL1        0.0213
@<TRIPOS>BOND
     1     1     2    1
     2     2     3   ar
     3     3     4   ar
     4     4     5   ar
     5     5     6   ar
     6     6     7   ar
     7     7    21    1
     8    21    22    2
     9    21    23   am
    10    23    25    1
    11    25    26    1
    12    26    27    1
    13    27    28    1
    14    28    29    2
    15    28    30   am
    16    30    32    1
    17    32    33    1
    18    33    34    1
    19     7     8   ar
    20     8     9   ar
    21     9    10   ar
    22     4    11    1
    23    11    12    1
    24    12    15    1
    25    15    16    1
    26    16    17    1
    27    17    18    1
    28    18    19    1
    29    19    20    1
    30    12    13    1
    31    13    14    1
    32    10     2   ar
    33    20    15    1
    34    14     3    1
    35    10     5   ar
    36    34    32    1
    37    23    24    1
    38    30    31    1
@<TRIPOS>MOLECULE
*****
 34 38 0 0 0
SMALL
GASTEIGER

@<TRIPOS>ATOM
      1 C         144.6982  143.1967  162.2056 C.3     1  UNL1        0.1301
      2 N         143.3448  142.7155  162.6378 N.ar    1  UNL1       -0.3289
      3 C         142.8699  142.5745  164.0536 C.ar    1  UNL1        0.0331
      4 C         141.4603  142.0627  164.0208 C.ar    1  UNL1       -0.0091
      5 C         141.0640  141.8874  162.5847 C.ar    1  UNL1        0.0130
      6 C         139.7931  141.4126  161.9449 C.ar    1  UNL1        0.0057
      7 C         139.6870  141.3412  160.4504 C.ar    1  UNL1        0.0534
      8 C         140.8517  141.7446  159.5957 C.ar    1  UNL1        0.0060
      9 C         142.1226  142.2195  160.2354 C.ar    1  UNL1        0.0173
     10 C         142.2288  142.2909  161.7299 C.ar    1  UNL1        0.0594
     11 C         140.7196  141.8224  165.3028 C.3     1  UNL1        0.0275
     12 C         141.3885  142.0939  166.6177 C.3     1  UNL1        0.0049
     13 C         142.7981  142.6057  166.6505 C.3     1  UNL1        0.0066
     14 C         143.5388  142.8460  165.3684 C.3     1  UNL1        0.0435
     15 C         140.6478  141.8536  167.8998 C.3     1  UNL1        0.0053
     16 C         139.9446  140.5481  168.1261 C.3     1  UNL1        0.0322
     17 C         139.2038  140.3078  169.4082 C.3     1  UNL1        0.1422
     18 O         139.1664  141.3729  170.4638 O.3     1  UNL1       -0.3538
     19 C         139.8697  142.6783  170.2373 C.3     1  UNL1        0.1422
     20 C         140.6104  142.9186  168.9553 C.3     1  UNL1        0.0322
     21 C         138.4161  140.8663  159.8106 C.2     1  UNL1        0.2458
     22 O         137.4235  140.0760  160.6106 O.2     1  UNL1       -0.2701
     23 N         138.1379  141.1818  158.3708 N.am    1  UNL1       -0.3009
     24 H         138.7894  141.7006  157.8458 H       1  UNL1        0.1497
     25 C         136.8670  140.7070  157.7310 C.3     1  UNL1        0.0902
     26 C         136.4458  141.2575  156.4007 C.3     1  UNL1        0.0308
     27 C         135.5474  140.4546  155.5072 C.3     1  UNL1        0.0868
     28 C         134.1294  140.1855  155.9156 C.2     1  UNL1        0.2225
     29 O         133.0891  141.2555  155.7633 O.2     1  UNL1       -0.2751
     30 N         133.7517  138.8466  156.4764 N.am    1  UNL1       -0.3060
     31 H         134.4344  138.1444  156.5764 H       1  UNL1        0.1494
     32 C         132.3337  138.5775  156.8849 C.3     1  UNL1        0.0717
     33 C         130.9894  137.9791  156.5940 C.3     1  UNL1        0.0213
     34 C         131.2220  138.7098  157.8832 C.3     1  UNL1        0.0213
@<TRIPOS>BOND
     1     1     2    1
     2     2     3   ar
     3     3     4   ar
     4     4     5   ar
     5     5     6   ar
     6     6     7   ar
     7     7    21    1
     8    21    22    2
     9    21    23   am
    10    23    25    1
    11    25    26    1
    12    26    27    1
    13    27    28    1
    14    28    29    2
    15    28    30   am
    16    30    32    1
    17    32    33    1
    18    33    34    1
    19     7     8   ar
    20     8     9   ar
    21     9    10   ar
    22     4    11    1
    23    11    12    1
    24    12    15    1
    25    15    16    1
    26    16    17    1
    27    17    18    1
    28    18    19    1
    29    19    20    1
    30    12    13    1
    31    13    14    1
    32    10     2   ar
    33    20    15    1
    34    14     3    1
    35    10     5   ar
    36    34    32    1
    37    23    24    1
    38    30    31    1
@<TRIPOS>MOLECULE
*****
 34 38 0 0 0
SMALL
GASTEIGER

@<TRIPOS>ATOM
      1 C         141.6951  140.3682  155.4439 C.3     1  UNL1        0.1301
      2 N         141.9048  139.3342  156.5101 N.ar    1  UNL1       -0.3289
      3 C         142.4399  137.9485  156.3015 C.ar    1  UNL1        0.0331
      4 C         142.4820  137.2623  157.6346 C.ar    1  UNL1       -0.0091
      5 C         141.9729  138.2239  158.6672 C.ar    1  UNL1        0.0130
      6 C         141.7882  138.0989  160.1505 C.ar    1  UNL1        0.0057
      7 C         141.2466  139.2545  160.9388 C.ar    1  UNL1        0.0534
      8 C         140.8899  140.5350  160.2438 C.ar    1  UNL1        0.0060
      9 C         141.0747  140.6599  158.7605 C.ar    1  UNL1        0.0173
     10 C         141.6162  139.5044  157.9722 C.ar    1  UNL1        0.0594
     11 C         142.9784  135.8505  157.7361 C.3     1  UNL1        0.0275
     12 C         143.4328  135.1249  156.5044 C.3     1  UNL1        0.0049
     13 C         143.3907  135.8111  155.1712 C.3     1  UNL1        0.0066
     14 C         142.8942  137.2229  155.0698 C.3     1  UNL1        0.0435
     15 C         143.9292  133.7130  156.6059 C.3     1  UNL1        0.0053
     16 C         144.5658  133.2314  157.8759 C.3     1  UNL1        0.0322
     17 C         145.0623  131.8195  157.9774 C.3     1  UNL1        0.1422
     18 O         144.9221  130.8894  156.8090 O.3     1  UNL1       -0.3538
     19 C         144.2856  131.3711  155.5390 C.3     1  UNL1        0.1422
     20 C         143.7891  132.7829  155.4375 C.3     1  UNL1        0.0322
     21 C         141.0618  139.1295  162.4222 C.2     1  UNL1        0.2458
     22 O         141.4621  140.2581  163.3255 O.2     1  UNL1       -0.2701
     23 N         140.4767  137.8760  163.0021 N.am    1  UNL1       -0.3009
     24 H         140.2140  137.1353  162.4092 H       1  UNL1        0.1497
     25 C         140.2919  137.7510  164.4854 C.3     1  UNL1        0.0902
     26 C         138.9104  137.6930  165.0668 C.3     1  UNL1        0.0308
     27 C         138.3445  138.8875  165.7762 C.3     1  UNL1        0.0868
     28 C         138.4272  140.2447  165.1427 C.2     1  UNL1        0.2225
     29 O         139.2943  141.3057  165.7530 O.2     1  UNL1       -0.2751
     30 N         137.6427  140.5409  163.8990 N.am    1  UNL1       -0.3060
     31 H         137.0735  139.8446  163.4985 H       1  UNL1        0.1494
     32 C         137.7253  141.8981  163.2656 C.3     1  UNL1        0.0717
     33 C         137.6138  143.3901  163.3718 C.3     1  UNL1        0.0213
     34 C         137.9799  142.7566  162.0623 C.3     1  UNL1        0.0213
@<TRIPOS>BOND
     1     1     2    1
     2     2     3   ar
     3     3     4   ar
     4     4     5   ar
     5     5     6   ar
     6     6     7   ar
     7     7    21    1
     8    21    22    2
     9    21    23   am
    10    23    25    1
    11    25    26    1
    12    26    27    1
    13    27    28    1
    14    28    29    2
    15    28    30   am
    16    30    32    1
    17    32    33    1
    18    33    34    1
    19     7     8   ar
    20     8     9   ar
    21     9    10   ar
    22     4    11    1
    23    11    12    1
    24    12    15    1
    25    15    16    1
    26    16    17    1
    27    17    18    1
    28    18    19    1
    29    19    20    1
    30    12    13    1
    31    13    14    1
    32    10     2   ar
    33    20    15    1
    34    14     3    1
    35    10     5   ar
    36    34    32    1
    37    23    24    1
    38    30    31    1
@<TRIPOS>MOLECULE
*****
 34 38 0 0 0
SMALL
GASTEIGER

@<TRIPOS>ATOM
      1 C         138.4593  137.8382  162.6000 C.3     1  UNL1        0.1301
      2 N         139.0948  139.1124  163.0719 N.ar    1  UNL1       -0.3289
      3 C         139.2730  139.5323  164.5008 C.ar    1  UNL1        0.0331
      4 C         139.9520  140.8698  164.5097 C.ar    1  UNL1       -0.0091
      5 C         140.1935  141.2765  163.0862 C.ar    1  UNL1        0.0130
      6 C         140.8273  142.4955  162.4844 C.ar    1  UNL1        0.0057
      7 C         140.9314  142.6284  160.9939 C.ar    1  UNL1        0.0534
      8 C         140.4016  141.5422  160.1053 C.ar    1  UNL1        0.0060
      9 C         139.7678  140.3232  160.7071 C.ar    1  UNL1        0.0173
     10 C         139.6637  140.1904  162.1976 C.ar    1  UNL1        0.0594
     11 C         140.2627  141.5446  165.8128 C.3     1  UNL1        0.0275
     12 C         139.8943  140.8818  167.1071 C.3     1  UNL1        0.0049
     13 C         139.2153  139.5444  167.0982 C.3     1  UNL1        0.0066
     14 C         138.9046  138.8696  165.7951 C.3     1  UNL1        0.0435
     15 C         140.2050  141.5567  168.4102 C.3     1  UNL1        0.0053
     16 C         140.3582  140.7406  169.6595 C.3     1  UNL1        0.0322
     17 C         140.6689  141.4155  170.9627 C.3     1  UNL1        0.1422
     18 O         140.8264  142.9062  171.0165 O.3     1  UNL1       -0.3538
     19 C         140.6733  143.7222  169.7672 C.3     1  UNL1        0.1422
     20 C         140.3626  143.0474  168.4641 C.3     1  UNL1        0.0322
     21 C         141.5652  143.8474  160.3920 C.2     1  UNL1        0.2458
     22 O         142.1682  144.8952  161.2800 O.2     1  UNL1       -0.2701
     23 N         141.5961  144.0186  158.9021 N.am    1  UNL1       -0.3009
     24 H         141.2004  143.3308  158.3193 H       1  UNL1        0.1497
     25 C         142.2299  145.2375  158.3002 C.3     1  UNL1        0.0902
     26 C         141.6788  145.8214  157.0332 C.3     1  UNL1        0.0308
     27 C         140.2162  146.1373  156.9270 C.3     1  UNL1        0.0868
     28 C         139.2690  145.1223  156.3589 C.2     1  UNL1        0.2225
     29 O         139.2484  143.7262  156.9072 O.2     1  UNL1       -0.2751
     30 N         138.3425  145.5035  155.2426 N.am    1  UNL1       -0.3060
     31 H         138.3560  146.4197  154.8828 H       1  UNL1        0.1494
     32 C         137.3953  144.4885  154.6745 C.3     1  UNL1        0.0717
     33 C         136.5541  143.2584  154.8449 C.3     1  UNL1        0.0213
     34 C         136.5959  143.9608  153.5202 C.3     1  UNL1        0.0213
@<TRIPOS>BOND
     1     1     2    1
     2     2     3   ar
     3     3     4   ar
     4     4     5   ar
     5     5     6   ar
     6     6     7   ar
     7     7    21    1
     8    21    22    2
     9    21    23   am
    10    23    25    1
    11    25    26    1
    12    26    27    1
    13    27    28    1
    14    28    29    2
    15    28    30   am
    16    30    32    1
    17    32    33    1
    18    33    34    1
    19     7     8   ar
    20     8     9   ar
    21     9    10   ar
    22     4    11    1
    23    11    12    1
    24    12    15    1
    25    15    16    1
    26    16    17    1
    27    17    18    1
    28    18    19    1
    29    19    20    1
    30    12    13    1
    31    13    14    1
    32    10     2   ar
    33    20    15    1
    34    14     3    1
    35    10     5   ar
    36    34    32    1
    37    23    24    1
    38    30    31    1
@<TRIPOS>MOLECULE
*****
 34 38 0 0 0
SMALL
GASTEIGER

@<TRIPOS>ATOM
      1 C         137.8953  137.0708  165.3242 C.3     1  UNL1        0.1301
      2 N         138.5069  138.4341  165.1920 N.ar    1  UNL1       -0.3289
      3 C         139.1026  139.2448  166.3047 C.ar    1  UNL1        0.0331
      4 C         139.5941  140.5377  165.7243 C.ar    1  UNL1       -0.0091
      5 C         139.3022  140.5260  164.2530 C.ar    1  UNL1        0.0130
      6 C         139.5615  141.5313  163.1703 C.ar    1  UNL1        0.0057
      7 C         139.1488  141.2364  161.7587 C.ar    1  UNL1        0.0534
      8 C         138.4769  139.9363  161.4298 C.ar    1  UNL1        0.0060
      9 C         138.2177  138.9310  162.5124 C.ar    1  UNL1        0.0173
     10 C         138.6303  139.2259  163.9240 C.ar    1  UNL1        0.0594
     11 C         140.2439  141.5586  166.6105 C.3     1  UNL1        0.0275
     12 C         140.4022  141.2866  168.0772 C.3     1  UNL1        0.0049
     13 C         139.9107  139.9937  168.6576 C.3     1  UNL1        0.0066
     14 C         139.2609  138.9728  167.7713 C.3     1  UNL1        0.0435
     15 C         141.0521  142.3076  168.9634 C.3     1  UNL1        0.0053
     16 C         140.2711  143.4992  169.4327 C.3     1  UNL1        0.0322
     17 C         140.9210  144.5202  170.3189 C.3     1  UNL1        0.1422
     18 O         142.3517  144.3495  170.7359 O.3     1  UNL1       -0.3538
     19 C         143.1326  143.1578  170.2666 C.3     1  UNL1        0.1422
     20 C         142.4828  142.1369  169.3804 C.3     1  UNL1        0.0322
     21 C         139.4081  142.2417  160.6759 C.2     1  UNL1        0.2458
     22 O         138.2584  142.9143  159.9861 O.2     1  UNL1       -0.2701
     23 N         140.8170  142.5743  160.2831 N.am    1  UNL1       -0.3009
     24 H         141.5715  142.1328  160.7359 H       1  UNL1        0.1497
     25 C         141.0762  143.5795  159.2004 C.3     1  UNL1        0.0902
     26 C         141.3324  145.0143  159.5548 C.3     1  UNL1        0.0308
     27 C         140.3079  145.7902  160.3285 C.3     1  UNL1        0.0868
     28 C         140.1132  145.5239  161.7918 C.2     1  UNL1        0.2225
     29 O         141.2480  145.7347  162.7500 O.2     1  UNL1       -0.2751
     30 N         138.7839  145.0468  162.2970 N.am    1  UNL1       -0.3060
     31 H         138.0391  144.9085  161.6681 H       1  UNL1        0.1494
     32 C         138.5892  144.7805  163.7602 C.3     1  UNL1        0.0717
     33 C         137.7330  144.2849  164.8878 C.3     1  UNL1        0.0213
     34 C         139.1082  144.8149  165.1671 C.3     1  UNL1        0.0213
@<TRIPOS>BOND
     1     1     2    1
     2     2     3   ar
     3     3     4   ar
     4     4     5   ar
     5     5     6   ar
     6     6     7   ar
     7     7    21    1
     8    21    22    2
     9    21    23   am
    10    23    25    1
    11    25    26    1
    12    26    27    1
    13    27    28    1
    14    28    29    2
    15    28    30   am
    16    30    32    1
    17    32    33    1
    18    33    34    1
    19     7     8   ar
    20     8     9   ar
    21     9    10   ar
    22     4    11    1
    23    11    12    1
    24    12    15    1
    25    15    16    1
    26    16    17    1
    27    17    18    1
    28    18    19    1
    29    19    20    1
    30    12    13    1
    31    13    14    1
    32    10     2   ar
    33    20    15    1
    34    14     3    1
    35    10     5   ar
    36    34    32    1
    37    23    24    1
    38    30    31    1
@<TRIPOS>MOLECULE
*****
 34 38 0 0 0
SMALL
GASTEIGER

@<TRIPOS>ATOM
      1 C         143.7055  138.1601  162.1691 C.3     1  UNL1        0.1301
      2 N         143.1226  139.4373  162.6972 N.ar    1  UNL1       -0.3289
      3 C         142.9282  139.7862  164.1430 C.ar    1  UNL1        0.0331
      4 C         142.3172  141.1544  164.2115 C.ar    1  UNL1       -0.0091
      5 C         142.1339  141.6511  162.8080 C.ar    1  UNL1        0.0130
      6 C         141.5781  142.9326  162.2614 C.ar    1  UNL1        0.0057
      7 C         141.5201  143.1528  160.7788 C.ar    1  UNL1        0.0534
      8 C         142.0179  142.0915  159.8429 C.ar    1  UNL1        0.0060
      9 C         142.5737  140.8101  160.3895 C.ar    1  UNL1        0.0173
     10 C         142.6317  140.5898  161.8721 C.ar    1  UNL1        0.0594
     11 C         142.0066  141.7712  165.5430 C.3     1  UNL1        0.0275
     12 C         142.3070  141.0199  166.8061 C.3     1  UNL1        0.0049
     13 C         142.9180  139.6517  166.7376 C.3     1  UNL1        0.0066
     14 C         143.2286  139.0349  165.4060 C.3     1  UNL1        0.0435
     15 C         141.9963  141.6368  168.1377 C.3     1  UNL1        0.0053
     16 C         143.0882  142.2832  168.9377 C.3     1  UNL1        0.0322
     17 C         142.7776  142.9001  170.2693 C.3     1  UNL1        0.1422
     18 O         141.3752  142.8705  170.8007 O.3     1  UNL1       -0.3538
     19 C         140.2834  142.2241  170.0006 C.3     1  UNL1        0.1422
     20 C         140.5940  141.6072  168.6691 C.3     1  UNL1        0.0322
     21 C         140.9643  144.4343  160.2321 C.2     1  UNL1        0.2458
     22 O         140.8341  145.6351  161.1214 O.2     1  UNL1       -0.2701
     23 N         140.5387  144.5149  158.7960 N.am    1  UNL1       -0.3009
     24 H         140.6241  143.7267  158.2123 H       1  UNL1        0.1497
     25 C         139.9829  145.7963  158.2492 C.3     1  UNL1        0.0902
     26 C         140.2500  146.1823  156.8246 C.3     1  UNL1        0.0308
     27 C         139.1322  146.6907  155.9631 C.3     1  UNL1        0.0868
     28 C         139.2501  148.0276  155.2932 C.2     1  UNL1        0.2225
     29 O         139.9753  148.1501  153.9858 O.2     1  UNL1       -0.2751
     30 N         138.6429  149.2420  155.9307 N.am    1  UNL1       -0.3060
     31 H         138.1669  149.1616  156.7887 H       1  UNL1        0.1494
     32 C         138.7608  150.5790  155.2608 C.3     1  UNL1        0.0717
     33 C         138.5744  152.0670  155.2892 C.3     1  UNL1        0.0213
     34 C         139.1513  151.4065  154.0723 C.3     1  UNL1        0.0213
@<TRIPOS>BOND
     1     1     2    1
     2     2     3   ar
     3     3     4   ar
     4     4     5   ar
     5     5     6   ar
     6     6     7   ar
     7     7    21    1
     8    21    22    2
     9    21    23   am
    10    23    25    1
    11    25    26    1
    12    26    27    1
    13    27    28    1
    14    28    29    2
    15    28    30   am
    16    30    32    1
    17    32    33    1
    18    33    34    1
    19     7     8   ar
    20     8     9   ar
    21     9    10   ar
    22     4    11    1
    23    11    12    1
    24    12    15    1
    25    15    16    1
    26    16    17    1
    27    17    18    1
    28    18    19    1
    29    19    20    1
    30    12    13    1
    31    13    14    1
    32    10     2   ar
    33    20    15    1
    34    14     3    1
    35    10     5   ar
    36    34    32    1
    37    23    24    1
    38    30    31    1
