@<TRIPOS>MOLECULE
*****
 34 37 0 0 0
SMALL
GASTEIGER

@<TRIPOS>ATOM
      1 N         141.5223  142.1139  168.4591 N.3     1  UNL1       -0.2750
      2 C         141.4894  143.1962  169.4972 C.3     1  UNL1        0.0611
      3 C         142.7347  143.0821  170.3255 C.3     1  UNL1        0.0175
      4 C         143.5373  141.9292  169.7993 C.3     1  UNL1        0.0175
      5 C         142.7880  141.3309  168.6458 C.3     1  UNL1        0.0611
      6 C         141.8308  140.9449  167.5440 C.3     1  UNL1        0.0595
      7 C         140.6114  141.8160  167.4787 C.3     1  UNL1        0.1686
      8 C         140.4407  142.9416  168.4553 C.3     1  UNL1        0.0595
      9 C         140.4736  141.8593  167.4172 C.3     1  UNL1        0.0720
     10 C         140.8139  143.7855  163.3646 C.3     1  UNL1        0.0730
     11 C         139.6460  144.1036  164.2505 C.3     1  UNL1        0.0197
     12 C         139.5326  143.4616  165.6014 C.3     1  UNL1        0.0031
     13 C         140.5870  142.5014  166.0663 C.3     1  UNL1        0.0161
     14 C         141.7549  142.1832  165.1805 C.3     1  UNL1        0.0031
     15 C         141.8684  142.8252  163.8296 C.3     1  UNL1        0.0197
     16 C         139.7124  143.8091  158.2866 C.3     1  UNL1        0.1165
     17 N         140.3766  144.4394  159.4747 N.am    1  UNL1       -0.2607
     18 C         141.1543  145.7117  159.3120 C.3     1  UNL1        0.1165
     19 C         140.2631  143.7973  160.8256 C.2     1  UNL1        0.3040
     20 O         139.4855  142.5250  160.9884 O.2     1  UNL1       -0.2526
     21 N         140.9273  144.4275  162.0137 N.am    1  UNL1       -0.2904
     22 H         141.4377  145.2626  161.9069 H       1  UNL1        0.1509
     23 O         139.5627  141.5614  166.4368 O.3     1  UNL1       -0.4791
     24 C         139.1589  140.1548  166.1072 C.ar    1  UNL1        0.1385
     25 C         138.4083  139.3345  167.1139 C.ar    1  UNL1        0.0369
     26 C         138.0045  137.9281  166.7843 C.ar    1  UNL1        0.0033
     27 C         138.3514  137.3418  165.4479 C.ar    1  UNL1        0.0047
     28 C         139.1021  138.1621  164.4412 C.ar    1  UNL1        0.0561
     29 C         139.5059  139.5687  164.7708 C.ar    1  UNL1        0.0414
     30 C         139.4490  137.5759  163.1048 C.2     1  UNL1        0.2428
     31 N         138.4485  137.6112  161.9877 N.am    1  UNL1       -0.3253
     32 O         140.7965  136.9543  162.8854 O.2     1  UNL1       -0.2704
     33 H         137.5641  138.0191  162.1317 H       1  UNL1        0.1453
     34 H         138.6762  137.2264  161.1106 H       1  UNL1        0.1453
@<TRIPOS>BOND
     1    16    17    1
     2    17    18    1
     3    17    19   am
     4    19    20    2
     5    19    21   am
     6    10    21    1
     7    10    11    1
     8    11    12    1
     9    12    13    1
    10    13     9    1
    11     9     1    1
    12     1     2    1
    13     2     3    1
    14     3     4    1
    15     5     4    1
    16     5     6    1
    17     6     7    1
    18     7    23    1
    19    23    24    1
    20    24    25   ar
    21    25    26   ar
    22    26    27   ar
    23    27    28   ar
    24    28    30    1
    25    30    31   am
    26    30    32    2
    27    28    29   ar
    28     7     8    1
    29    13    14    1
    30    14    15    1
    31    15    10    1
    32     5     1    1
    33    29    24   ar
    34     8     2    1
    35    21    22    1
    36    31    33    1
    37    31    34    1
@<TRIPOS>MOLECULE
*****
 34 37 0 0 0
SMALL
GASTEIGER

@<TRIPOS>ATOM
      1 N         139.1056  138.6355  165.1709 N.3     1  UNL1       -0.2750
      2 C         138.5952  137.2519  165.4449 C.3     1  UNL1        0.0611
      3 C         137.7217  137.3127  166.6629 C.3     1  UNL1        0.0175
      4 C         137.6924  138.7340  167.1416 C.3     1  UNL1        0.0175
      5 C         138.5477  139.5515  166.2195 C.3     1  UNL1        0.0611
      6 C         139.4531  140.1113  165.1490 C.3     1  UNL1        0.0595
      7 C         139.9330  139.0793  164.1719 C.3     1  UNL1        0.1686
      8 C         139.5040  137.6496  164.3198 C.3     1  UNL1        0.0595
      9 C         140.0145  139.0332  164.0458 C.3     1  UNL1        0.0720
     10 C         138.3105  139.8734  159.9666 C.3     1  UNL1        0.0730
     11 C         138.0877  140.8453  161.0872 C.3     1  UNL1        0.0197
     12 C         138.6557  140.5652  162.4469 C.3     1  UNL1        0.0031
     13 C         139.4465  139.3133  162.6860 C.3     1  UNL1        0.0161
     14 C         139.6693  138.3414  161.5655 C.3     1  UNL1        0.0031
     15 C         139.1014  138.6214  160.2057 C.3     1  UNL1        0.0197
     16 C         138.6316  142.2529  155.3584 C.3     1  UNL1        0.1165
     17 N         137.9031  141.3433  156.3027 N.am    1  UNL1       -0.2607
     18 C         136.6065  140.7136  155.8873 C.3     1  UNL1        0.1165
     19 C         138.4711  141.0632  157.6625 C.2     1  UNL1        0.3040
     20 O         139.7676  141.6928  158.0780 O.2     1  UNL1       -0.2526
     21 N         137.7425  140.1535  158.6068 N.am    1  UNL1       -0.2904
     22 H         136.8916  139.7403  158.3341 H       1  UNL1        0.1509
     23 O         140.8419  139.4771  163.0468 O.3     1  UNL1       -0.4791
     24 C         142.2351  139.9495  163.3394 C.ar    1  UNL1        0.1385
     25 C         143.3030  138.9593  163.6986 C.ar    1  UNL1        0.0369
     26 C         144.6962  139.4317  163.9912 C.ar    1  UNL1        0.0033
     27 C         145.0216  140.8945  163.9246 C.ar    1  UNL1        0.0047
     28 C         143.9537  141.8847  163.5655 C.ar    1  UNL1        0.0561
     29 C         142.5605  141.4123  163.2728 C.ar    1  UNL1        0.0414
     30 C         144.2792  143.3475  163.4989 C.2     1  UNL1        0.2428
     31 N         144.6918  143.9655  162.1959 N.am    1  UNL1       -0.3253
     32 O         144.1919  144.1923  164.7354 O.2     1  UNL1       -0.2704
     33 H         144.7491  143.4111  161.3844 H       1  UNL1        0.1453
     34 H         144.9054  144.9256  162.1523 H       1  UNL1        0.1453
@<TRIPOS>BOND
     1    16    17    1
     2    17    18    1
     3    17    19   am
     4    19    20    2
     5    19    21   am
     6    10    21    1
     7    10    11    1
     8    11    12    1
     9    12    13    1
    10    13     9    1
    11     9     1    1
    12     1     2    1
    13     2     3    1
    14     3     4    1
    15     5     4    1
    16     5     6    1
    17     6     7    1
    18     7    23    1
    19    23    24    1
    20    24    25   ar
    21    25    26   ar
    22    26    27   ar
    23    27    28   ar
    24    28    30    1
    25    30    31   am
    26    30    32    2
    27    28    29   ar
    28     7     8    1
    29    13    14    1
    30    14    15    1
    31    15    10    1
    32     5     1    1
    33    29    24   ar
    34     8     2    1
    35    21    22    1
    36    31    33    1
    37    31    34    1
@<TRIPOS>MOLECULE
*****
 34 37 0 0 0
SMALL
GASTEIGER

@<TRIPOS>ATOM
      1 N         142.2731  142.9705  164.0662 N.3     1  UNL1       -0.2750
      2 C         143.6959  143.4044  164.2596 C.3     1  UNL1        0.0611
      3 C         143.7470  144.8978  164.1293 C.3     1  UNL1        0.0175
      4 C         142.3557  145.3869  163.8553 C.3     1  UNL1        0.0175
      5 C         141.4448  144.1958  163.8163 C.3     1  UNL1        0.0611
      6 C         140.7805  142.8403  163.8331 C.3     1  UNL1        0.0595
      7 C         141.7326  141.7109  164.0944 C.3     1  UNL1        0.1686
      8 C         143.1903  141.9930  164.3076 C.3     1  UNL1        0.0595
      9 C         141.7675  141.5591  164.1142 C.3     1  UNL1        0.0720
     10 C         141.8131  139.0249  160.3959 C.3     1  UNL1        0.0730
     11 C         142.7737  138.7372  161.5115 C.3     1  UNL1        0.0197
     12 C         142.7585  139.5819  162.7508 C.3     1  UNL1        0.0031
     13 C         141.7827  140.7144  162.8747 C.3     1  UNL1        0.0161
     14 C         140.8221  141.0021  161.7593 C.3     1  UNL1        0.0031
     15 C         140.8372  140.1574  160.5198 C.3     1  UNL1        0.0197
     16 C         143.8444  137.8864  155.7508 C.3     1  UNL1        0.1165
     17 N         142.8440  137.6109  156.8339 N.am    1  UNL1       -0.2607
     18 C         141.8587  136.4907  156.6776 C.3     1  UNL1        0.1165
     19 C         142.8288  138.4557  158.0733 C.2     1  UNL1        0.3040
     20 O         143.8140  139.5759  158.2297 O.2     1  UNL1       -0.2526
     21 N         141.8283  138.1802  159.1565 N.am    1  UNL1       -0.2904
     22 H         141.1817  137.4450  159.0539 H       1  UNL1        0.1509
     23 O         141.2269  140.2995  164.1424 O.3     1  UNL1       -0.4791
     24 C         140.2502  139.8885  165.2041 C.ar    1  UNL1        0.1385
     25 C         139.0771  139.0235  164.8498 C.ar    1  UNL1        0.0369
     26 C         138.1005  138.6125  165.9115 C.ar    1  UNL1        0.0033
     27 C         138.2971  139.0664  167.3276 C.ar    1  UNL1        0.0047
     28 C         139.4702  139.9313  167.6819 C.ar    1  UNL1        0.0561
     29 C         140.4468  140.3424  166.6201 C.ar    1  UNL1        0.0414
     30 C         139.6668  140.3852  169.0980 C.2     1  UNL1        0.2428
     31 N         138.6500  140.0383  170.1448 N.am    1  UNL1       -0.3253
     32 O         140.8801  141.1861  169.4674 O.2     1  UNL1       -0.2704
     33 H         137.8536  139.5126  169.9024 H       1  UNL1        0.1453
     34 H         138.7790  140.3362  171.0742 H       1  UNL1        0.1453
@<TRIPOS>BOND
     1    16    17    1
     2    17    18    1
     3    17    19   am
     4    19    20    2
     5    19    21   am
     6    10    21    1
     7    10    11    1
     8    11    12    1
     9    12    13    1
    10    13     9    1
    11     9     1    1
    12     1     2    1
    13     2     3    1
    14     3     4    1
    15     5     4    1
    16     5     6    1
    17     6     7    1
    18     7    23    1
    19    23    24    1
    20    24    25   ar
    21    25    26   ar
    22    26    27   ar
    23    27    28   ar
    24    28    30    1
    25    30    31   am
    26    30    32    2
    27    28    29   ar
    28     7     8    1
    29    13    14    1
    30    14    15    1
    31    15    10    1
    32     5     1    1
    33    29    24   ar
    34     8     2    1
    35    21    22    1
    36    31    33    1
    37    31    34    1
@<TRIPOS>MOLECULE
*****
 34 37 0 0 0
SMALL
GASTEIGER

@<TRIPOS>ATOM
      1 N         139.4440  142.6634  164.7001 N.3     1  UNL1       -0.2750
      2 C         140.1166  143.9892  164.5003 C.3     1  UNL1        0.0611
      3 C         139.0560  145.0063  164.1991 C.3     1  UNL1        0.0175
      4 C         137.7280  144.3091  164.2127 C.3     1  UNL1        0.0175
      5 C         137.9678  142.8611  164.5224 C.3     1  UNL1        0.0611
      6 C         138.5000  141.4857  164.8451 C.3     1  UNL1        0.0595
      7 C         139.9919  141.4415  164.9939 C.3     1  UNL1        0.1686
      8 C         140.8002  142.6933  164.8215 C.3     1  UNL1        0.0595
      9 C         140.1277  141.3675  165.0214 C.3     1  UNL1        0.0720
     10 C         141.6151  138.7239  161.6974 C.3     1  UNL1        0.0730
     11 C         140.2192  138.5572  162.2207 C.3     1  UNL1        0.0197
     12 C         139.7235  139.4384  163.3286 C.3     1  UNL1        0.0031
     13 C         140.6235  140.4863  163.9133 C.3     1  UNL1        0.0161
     14 C         142.0193  140.6530  163.3901 C.3     1  UNL1        0.0031
     15 C         142.5152  139.7718  162.2821 C.3     1  UNL1        0.0197
     16 C         142.6589  137.9834  156.6613 C.3     1  UNL1        0.1165
     17 N         142.6328  137.4725  158.0713 N.am    1  UNL1       -0.2607
     18 C         143.1025  136.0802  158.3734 C.3     1  UNL1        0.1165
     19 C         142.1370  138.3537  159.1793 C.2     1  UNL1        0.3040
     20 O         141.6673  139.7459  158.8773 O.2     1  UNL1       -0.2526
     21 N         142.1109  137.8427  160.5894 N.am    1  UNL1       -0.2904
     22 H         142.4191  136.9290  160.7876 H       1  UNL1        0.1509
     23 O         140.6756  140.1455  165.3151 O.3     1  UNL1       -0.4791
     24 C         141.1311  139.8651  166.7165 C.ar    1  UNL1        0.1385
     25 C         142.5041  139.3135  166.9626 C.ar    1  UNL1        0.0369
     26 C         142.9597  139.0331  168.3639 C.ar    1  UNL1        0.0033
     27 C         142.0423  139.3043  169.5192 C.ar    1  UNL1        0.0047
     28 C         140.6693  139.8559  169.2731 C.ar    1  UNL1        0.0561
     29 C         140.2137  140.1363  167.8717 C.ar    1  UNL1        0.0414
     30 C         139.7518  140.1271  170.4284 C.2     1  UNL1        0.2428
     31 N         139.6797  139.1592  171.5722 N.am    1  UNL1       -0.3253
     32 O         138.9064  141.3662  170.4401 O.2     1  UNL1       -0.2704
     33 H         140.2345  138.3460  171.5646 H       1  UNL1        0.1453
     34 H         139.0776  139.3373  172.3304 H       1  UNL1        0.1453
@<TRIPOS>BOND
     1    16    17    1
     2    17    18    1
     3    17    19   am
     4    19    20    2
     5    19    21   am
     6    10    21    1
     7    10    11    1
     8    11    12    1
     9    12    13    1
    10    13     9    1
    11     9     1    1
    12     1     2    1
    13     2     3    1
    14     3     4    1
    15     5     4    1
    16     5     6    1
    17     6     7    1
    18     7    23    1
    19    23    24    1
    20    24    25   ar
    21    25    26   ar
    22    26    27   ar
    23    27    28   ar
    24    28    30    1
    25    30    31   am
    26    30    32    2
    27    28    29   ar
    28     7     8    1
    29    13    14    1
    30    14    15    1
    31    15    10    1
    32     5     1    1
    33    29    24   ar
    34     8     2    1
    35    21    22    1
    36    31    33    1
    37    31    34    1
@<TRIPOS>MOLECULE
*****
 34 37 0 0 0
SMALL
GASTEIGER

@<TRIPOS>ATOM
      1 N         142.4324  142.2270  164.0471 N.3     1  UNL1       -0.2750
      2 C         143.7552  141.5674  163.7920 C.3     1  UNL1        0.0611
      3 C         144.8354  142.5033  164.2474 C.3     1  UNL1        0.0175
      4 C         144.1801  143.7413  164.7839 C.3     1  UNL1        0.0175
      5 C         142.6950  143.5706  164.6602 C.3     1  UNL1        0.0611
      6 C         141.2717  143.1300  164.4169 C.3     1  UNL1        0.0595
      7 C         141.1648  141.7669  163.8000 C.3     1  UNL1        0.1686
      8 C         142.4066  140.9856  163.4876 C.3     1  UNL1        0.0595
      9 C         141.0838  141.6452  163.7427 C.3     1  UNL1        0.0720
     10 C         139.1074  142.4937  159.7900 C.3     1  UNL1        0.0730
     11 C         140.4163  141.7622  159.8324 C.3     1  UNL1        0.0197
     12 C         141.0750  141.4794  161.1499 C.3     1  UNL1        0.0031
     13 C         140.4250  141.9281  162.4251 C.3     1  UNL1        0.0161
     14 C         139.1162  142.6595  162.3827 C.3     1  UNL1        0.0031
     15 C         138.4573  142.9424  161.0652 C.3     1  UNL1        0.0197
     16 C         136.2083  140.9144  155.7774 C.3     1  UNL1        0.1165
     17 N         136.9991  141.9869  156.4661 N.am    1  UNL1       -0.2607
     18 C         137.1311  143.3423  155.8372 C.3     1  UNL1        0.1165
     19 C         137.6579  141.7040  157.7837 C.2     1  UNL1        0.3040
     20 O         137.5258  140.3487  158.4126 O.2     1  UNL1       -0.2526
     21 N         138.4487  142.7766  158.4724 N.am    1  UNL1       -0.2904
     22 H         138.5353  143.6661  158.0596 H       1  UNL1        0.1509
     23 O         139.8161  141.1851  163.4955 O.3     1  UNL1       -0.4791
     24 C         139.4050  139.8813  164.1130 C.ar    1  UNL1        0.1385
     25 C         139.5947  138.6002  163.3562 C.ar    1  UNL1        0.0369
     26 C         139.1836  137.2965  163.9736 C.ar    1  UNL1        0.0033
     27 C         138.5828  137.2739  165.3478 C.ar    1  UNL1        0.0047
     28 C         138.3931  138.5550  166.1046 C.ar    1  UNL1        0.0561
     29 C         138.8042  139.8587  165.4872 C.ar    1  UNL1        0.0414
     30 C         137.7923  138.5323  167.4788 C.2     1  UNL1        0.2428
     31 N         136.6391  137.6210  167.7783 N.am    1  UNL1       -0.3253
     32 O         138.3448  139.4209  168.5537 O.2     1  UNL1       -0.2704
     33 H         136.2765  137.0378  167.0729 H       1  UNL1        0.1453
     34 H         136.2448  137.6061  168.6803 H       1  UNL1        0.1453
@<TRIPOS>BOND
     1    16    17    1
     2    17    18    1
     3    17    19   am
     4    19    20    2
     5    19    21   am
     6    10    21    1
     7    10    11    1
     8    11    12    1
     9    12    13    1
    10    13     9    1
    11     9     1    1
    12     1     2    1
    13     2     3    1
    14     3     4    1
    15     5     4    1
    16     5     6    1
    17     6     7    1
    18     7    23    1
    19    23    24    1
    20    24    25   ar
    21    25    26   ar
    22    26    27   ar
    23    27    28   ar
    24    28    30    1
    25    30    31   am
    26    30    32    2
    27    28    29   ar
    28     7     8    1
    29    13    14    1
    30    14    15    1
    31    15    10    1
    32     5     1    1
    33    29    24   ar
    34     8     2    1
    35    21    22    1
    36    31    33    1
    37    31    34    1
@<TRIPOS>MOLECULE
*****
 34 37 0 0 0
SMALL
GASTEIGER

@<TRIPOS>ATOM
      1 N         142.5137  142.2137  164.5104 N.3     1  UNL1       -0.2750
      2 C         142.8319  143.6758  164.6148 C.3     1  UNL1        0.0611
      3 C         144.3241  143.8274  164.6032 C.3     1  UNL1        0.0175
      4 C         144.9282  142.4590  164.4916 C.3     1  UNL1        0.0175
      5 C         143.8093  141.4616  164.4342 C.3     1  UNL1        0.0611
      6 C         142.5054  140.7016  164.3974 C.3     1  UNL1        0.0595
      7 C         141.2958  141.5847  164.4821 C.3     1  UNL1        0.1686
      8 C         141.4591  143.0718  164.5908 C.3     1  UNL1        0.0595
      9 C         141.1409  141.6096  164.4863 C.3     1  UNL1        0.0720
     10 C         138.8700  141.3374  160.6109 C.3     1  UNL1        0.0730
     11 C         138.4805  142.3586  161.6383 C.3     1  UNL1        0.0197
     12 C         139.2374  142.4493  162.9301 C.3     1  UNL1        0.0031
     13 C         140.3839  141.5189  163.1945 C.3     1  UNL1        0.0161
     14 C         140.7735  140.4978  162.1672 C.3     1  UNL1        0.0031
     15 C         140.0166  140.4070  160.8753 C.3     1  UNL1        0.0197
     16 C         137.6656  143.3015  155.9534 C.3     1  UNL1        0.1165
     17 N         137.5109  142.2287  156.9903 N.am    1  UNL1       -0.2607
     18 C         136.5991  141.0651  156.7354 C.3     1  UNL1        0.1165
     19 C         138.2678  142.3195  158.2822 C.2     1  UNL1        0.3040
     20 O         139.1796  143.4830  158.5371 O.2     1  UNL1       -0.2526
     21 N         138.1131  141.2467  159.3191 N.am    1  UNL1       -0.2904
     22 H         137.5147  140.4830  159.1518 H       1  UNL1        0.1509
     23 O         139.9230  140.9806  164.4580 O.3     1  UNL1       -0.4791
     24 C         139.3564  140.3565  165.6988 C.ar    1  UNL1        0.1385
     25 C         138.3008  139.2964  165.5902 C.ar    1  UNL1        0.0369
     26 C         137.7342  138.6723  166.8309 C.ar    1  UNL1        0.0033
     27 C         138.2232  139.1083  168.1802 C.ar    1  UNL1        0.0047
     28 C         139.2788  140.1685  168.2888 C.ar    1  UNL1        0.0561
     29 C         139.8454  140.7925  167.0480 C.ar    1  UNL1        0.0414
     30 C         139.7678  140.6045  169.6382 C.2     1  UNL1        0.2428
     31 N         140.2506  139.5846  170.6265 N.am    1  UNL1       -0.3253
     32 O         139.7739  142.0604  169.9992 O.2     1  UNL1       -0.2704
     33 H         140.2466  138.6291  170.3895 H       1  UNL1        0.1453
     34 H         140.5716  139.8708  171.5121 H       1  UNL1        0.1453
@<TRIPOS>BOND
     1    16    17    1
     2    17    18    1
     3    17    19   am
     4    19    20    2
     5    19    21   am
     6    10    21    1
     7    10    11    1
     8    11    12    1
     9    12    13    1
    10    13     9    1
    11     9     1    1
    12     1     2    1
    13     2     3    1
    14     3     4    1
    15     5     4    1
    16     5     6    1
    17     6     7    1
    18     7    23    1
    19    23    24    1
    20    24    25   ar
    21    25    26   ar
    22    26    27   ar
    23    27    28   ar
    24    28    30    1
    25    30    31   am
    26    30    32    2
    27    28    29   ar
    28     7     8    1
    29    13    14    1
    30    14    15    1
    31    15    10    1
    32     5     1    1
    33    29    24   ar
    34     8     2    1
    35    21    22    1
    36    31    33    1
    37    31    34    1
@<TRIPOS>MOLECULE
*****
 34 37 0 0 0
SMALL
GASTEIGER

@<TRIPOS>ATOM
      1 N         139.4184  142.4147  163.6155 N.3     1  UNL1       -0.2750
      2 C         138.0730  142.4396  164.2782 C.3     1  UNL1        0.0611
      3 C         137.6731  143.8735  164.4620 C.3     1  UNL1        0.0175
      4 C         138.7714  144.7350  163.9128 C.3     1  UNL1        0.0175
      5 C         139.8501  143.8334  163.3897 C.3     1  UNL1        0.0611
      6 C         140.7526  142.7038  162.9555 C.3     1  UNL1        0.0595
      7 C         140.1901  141.3438  163.2453 C.3     1  UNL1        0.1686
      8 C         138.8503  141.2117  163.9066 C.3     1  UNL1        0.0595
      9 C         140.1957  141.1869  163.2439 C.3     1  UNL1        0.0720
     10 C         139.5165  139.2149  159.2565 C.3     1  UNL1        0.0730
     11 C         139.0705  138.5332  160.5160 C.3     1  UNL1        0.0197
     12 C         139.2969  139.1905  161.8451 C.3     1  UNL1        0.0031
     13 C         139.9693  140.5295  161.9148 C.3     1  UNL1        0.0161
     14 C         140.4153  141.2112  160.6554 C.3     1  UNL1        0.0031
     15 C         140.1890  140.5540  159.3261 C.3     1  UNL1        0.0197
     16 C         141.2821  136.3644  155.2870 C.3     1  UNL1        0.1165
     17 N         140.1729  137.1323  155.9426 N.am    1  UNL1       -0.2607
     18 C         138.8371  137.2429  155.2690 C.3     1  UNL1        0.1165
     19 C         140.3993  137.7897  157.2718 C.2     1  UNL1        0.3040
     20 O         141.7350  137.6791  157.9453 O.2     1  UNL1       -0.2526
     21 N         139.2900  138.5576  157.9273 N.am    1  UNL1       -0.2904
     22 H         138.4134  138.6302  157.4853 H       1  UNL1        0.1509
     23 O         140.9675  140.1159  162.8736 O.3     1  UNL1       -0.4791
     24 C         142.2972  139.8477  163.5139 C.ar    1  UNL1        0.1385
     25 C         143.5631  140.1841  162.7829 C.ar    1  UNL1        0.0369
     26 C         144.8927  139.9159  163.4232 C.ar    1  UNL1        0.0033
     27 C         144.9566  139.3114  164.7945 C.ar    1  UNL1        0.0047
     28 C         143.6907  138.9750  165.5255 C.ar    1  UNL1        0.0561
     29 C         142.3610  139.2432  164.8852 C.ar    1  UNL1        0.0414
     30 C         143.7545  138.3704  166.8967 C.2     1  UNL1        0.2428
     31 N         144.6409  137.1882  167.1547 N.am    1  UNL1       -0.3253
     32 O         142.9319  138.9482  168.0102 O.2     1  UNL1       -0.2704
     33 H         145.1808  136.8090  166.4239 H       1  UNL1        0.1453
     34 H         144.6828  136.7914  168.0547 H       1  UNL1        0.1453
@<TRIPOS>BOND
     1    16    17    1
     2    17    18    1
     3    17    19   am
     4    19    20    2
     5    19    21   am
     6    10    21    1
     7    10    11    1
     8    11    12    1
     9    12    13    1
    10    13     9    1
    11     9     1    1
    12     1     2    1
    13     2     3    1
    14     3     4    1
    15     5     4    1
    16     5     6    1
    17     6     7    1
    18     7    23    1
    19    23    24    1
    20    24    25   ar
    21    25    26   ar
    22    26    27   ar
    23    27    28   ar
    24    28    30    1
    25    30    31   am
    26    30    32    2
    27    28    29   ar
    28     7     8    1
    29    13    14    1
    30    14    15    1
    31    15    10    1
    32     5     1    1
    33    29    24   ar
    34     8     2    1
    35    21    22    1
    36    31    33    1
    37    31    34    1
@<TRIPOS>MOLECULE
*****
 34 37 0 0 0
SMALL
GASTEIGER

@<TRIPOS>ATOM
      1 N         142.8395  142.3008  164.1685 N.3     1  UNL1       -0.2750
      2 C         143.1218  143.5982  164.8664 C.3     1  UNL1        0.0611
      3 C         144.5945  143.6648  165.1432 C.3     1  UNL1        0.0175
      4 C         145.2224  142.4086  164.6163 C.3     1  UNL1        0.0175
      5 C         144.1378  141.5656  164.0138 C.3     1  UNL1        0.0611
      6 C         142.8649  140.9442  163.4916 C.3     1  UNL1        0.0595
      7 C         141.6488  141.7930  163.7168 C.3     1  UNL1        0.1686
      8 C         141.7773  143.1200  164.4043 C.3     1  UNL1        0.0595
      9 C         141.4950  141.8226  163.7063 C.3     1  UNL1        0.0720
     10 C         139.9177  143.0856  159.6855 C.3     1  UNL1        0.0730
     11 C         139.3067  143.6393  160.9385 C.3     1  UNL1        0.0197
     12 C         139.8324  143.2183  162.2787 C.3     1  UNL1        0.0031
     13 C         140.9692  142.2436  162.3660 C.3     1  UNL1        0.0161
     14 C         141.5803  141.6899  161.1131 C.3     1  UNL1        0.0031
     15 C         141.0546  142.1109  159.7728 C.3     1  UNL1        0.0197
     16 C         140.1143  146.2441  155.5642 C.3     1  UNL1        0.1165
     17 N         139.4902  145.0858  156.2846 N.am    1  UNL1       -0.2607
     18 C         138.3403  144.3485  155.6646 C.3     1  UNL1        0.1165
     19 C         140.0160  144.6649  157.6248 C.2     1  UNL1        0.3040
     20 O         141.1658  145.4021  158.2448 O.2     1  UNL1       -0.2526
     21 N         139.3919  143.5066  158.3452 N.am    1  UNL1       -0.2904
     22 H         138.6372  143.0227  157.9384 H       1  UNL1        0.1509
     23 O         140.3043  141.3148  163.2546 O.3     1  UNL1       -0.4791
     24 C         139.7329  140.0402  163.8015 C.ar    1  UNL1        0.1385
     25 C         139.7178  138.8014  162.9558 C.ar    1  UNL1        0.0369
     26 C         139.1465  137.5270  163.5026 C.ar    1  UNL1        0.0033
     27 C         138.5902  137.4911  164.8952 C.ar    1  UNL1        0.0047
     28 C         138.6053  138.7299  165.7409 C.ar    1  UNL1        0.0561
     29 C         139.1767  140.0045  165.1940 C.ar    1  UNL1        0.0414
     30 C         138.0490  138.6941  167.1334 C.2     1  UNL1        0.2428
     31 N         138.6903  139.5074  168.2184 N.am    1  UNL1       -0.3253
     32 O         136.8513  137.8449  167.4411 O.2     1  UNL1       -0.2704
     33 H         139.4764  140.0647  168.0166 H       1  UNL1        0.1453
     34 H         138.3252  139.4839  169.1324 H       1  UNL1        0.1453
@<TRIPOS>BOND
     1    16    17    1
     2    17    18    1
     3    17    19   am
     4    19    20    2
     5    19    21   am
     6    10    21    1
     7    10    11    1
     8    11    12    1
     9    12    13    1
    10    13     9    1
    11     9     1    1
    12     1     2    1
    13     2     3    1
    14     3     4    1
    15     5     4    1
    16     5     6    1
    17     6     7    1
    18     7    23    1
    19    23    24    1
    20    24    25   ar
    21    25    26   ar
    22    26    27   ar
    23    27    28   ar
    24    28    30    1
    25    30    31   am
    26    30    32    2
    27    28    29   ar
    28     7     8    1
    29    13    14    1
    30    14    15    1
    31    15    10    1
    32     5     1    1
    33    29    24   ar
    34     8     2    1
    35    21    22    1
    36    31    33    1
    37    31    34    1
@<TRIPOS>MOLECULE
*****
 34 37 0 0 0
SMALL
GASTEIGER

@<TRIPOS>ATOM
      1 N         142.4731  143.1752  163.9172 N.3     1  UNL1       -0.2750
      2 C         141.5805  144.0095  163.0470 C.3     1  UNL1        0.0611
      3 C         142.2535  145.3315  162.8249 C.3     1  UNL1        0.0175
      4 C         143.5621  145.3142  163.5579 C.3     1  UNL1        0.0175
      5 C         143.6979  143.9816  164.2330 C.3     1  UNL1        0.0611
      6 C         143.5646  142.5841  164.7882 C.3     1  UNL1        0.0595
      7 C         142.2900  141.9012  164.3892 C.3     1  UNL1        0.1686
      8 C         141.2979  142.6139  163.5187 C.3     1  UNL1        0.0595
      9 C         142.1906  141.7796  164.3889 C.3     1  UNL1        0.0720
     10 C         142.8378  138.2937  161.6177 C.3     1  UNL1        0.0730
     11 C         144.0147  138.9942  162.2294 C.3     1  UNL1        0.0197
     12 C         143.7990  140.1561  163.1531 C.3     1  UNL1        0.0031
     13 C         142.4063  140.6176  163.4651 C.3     1  UNL1        0.0161
     14 C         141.2294  139.9173  162.8535 C.3     1  UNL1        0.0031
     15 C         141.4450  138.7553  161.9298 C.3     1  UNL1        0.0197
     16 C         142.9134  136.3190  156.8120 C.3     1  UNL1        0.1165
     17 N         143.0913  136.1444  158.2911 N.am    1  UNL1       -0.2607
     18 C         143.4850  134.8077  158.8466 C.3     1  UNL1        0.1165
     19 C         142.8756  137.3064  159.2149 C.2     1  UNL1        0.3040
     20 O         142.4819  138.6430  158.6595 O.2     1  UNL1       -0.2526
     21 N         143.0535  137.1318  160.6940 N.am    1  UNL1       -0.2904
     22 H         143.3119  136.2545  161.0585 H       1  UNL1        0.1509
     23 O         142.0075  140.5055  164.8609 O.3     1  UNL1       -0.4791
     24 C         141.4701  140.2751  166.2423 C.ar    1  UNL1        0.1385
     25 C         139.9987  140.4003  166.5052 C.ar    1  UNL1        0.0369
     26 C         139.4614  140.1699  167.8865 C.ar    1  UNL1        0.0033
     27 C         140.3955  139.8142  169.0050 C.ar    1  UNL1        0.0047
     28 C         141.8669  139.6889  168.7420 C.ar    1  UNL1        0.0561
     29 C         142.4043  139.9194  167.3607 C.ar    1  UNL1        0.0414
     30 C         142.8010  139.3332  169.8605 C.2     1  UNL1        0.2428
     31 N         143.4374  140.4169  170.6795 N.am    1  UNL1       -0.3253
     32 O         143.0988  137.8938  170.1600 O.2     1  UNL1       -0.2704
     33 H         143.2420  141.3616  170.4830 H       1  UNL1        0.1453
     34 H         144.0505  140.1834  171.4136 H       1  UNL1        0.1453
@<TRIPOS>BOND
     1    16    17    1
     2    17    18    1
     3    17    19   am
     4    19    20    2
     5    19    21   am
     6    10    21    1
     7    10    11    1
     8    11    12    1
     9    12    13    1
    10    13     9    1
    11     9     1    1
    12     1     2    1
    13     2     3    1
    14     3     4    1
    15     5     4    1
    16     5     6    1
    17     6     7    1
    18     7    23    1
    19    23    24    1
    20    24    25   ar
    21    25    26   ar
    22    26    27   ar
    23    27    28   ar
    24    28    30    1
    25    30    31   am
    26    30    32    2
    27    28    29   ar
    28     7     8    1
    29    13    14    1
    30    14    15    1
    31    15    10    1
    32     5     1    1
    33    29    24   ar
    34     8     2    1
    35    21    22    1
    36    31    33    1
    37    31    34    1
