@<TRIPOS>MOLECULE
*****
 32 34 0 0 0
SMALL
GASTEIGER

@<TRIPOS>ATOM
      1 C         141.2073  140.4720  168.2640 C.ar    1  UNL1        0.0519
      2 C         140.6101  140.7176  169.6178 C.ar    1  UNL1        0.0853
      3 C         139.2038  140.2833  169.9072 C.ar    1  UNL1        0.1045
      4 N         138.3947  139.6035  168.8427 N.ar    1  UNL1       -0.2436
      5 C         138.9920  139.3579  167.4887 C.ar    1  UNL1        0.0825
      6 C         138.1829  138.6781  166.4242 C.ar    1  UNL1        0.0191
      7 C         138.7801  138.4325  165.0704 C.ar    1  UNL1        0.0016
      8 C         140.1864  138.8668  164.7810 C.ar    1  UNL1        0.0016
      9 C         140.9955  139.5466  165.8455 C.ar    1  UNL1        0.0028
     10 C         140.3983  139.7922  167.1994 C.ar    1  UNL1        0.0309
     11 C         140.7836  138.6212  163.4271 C.ar    1  UNL1        0.0192
     12 C         142.2098  138.1723  163.3066 C.ar    1  UNL1        0.0028
     13 C         142.8070  137.9267  161.9527 C.ar    1  UNL1        0.0173
     14 C         141.9780  138.1300  160.7192 C.ar    1  UNL1        0.0888
     15 N         140.5518  138.5790  160.8397 N.ar    1  UNL1       -0.2457
     16 C         139.9546  138.8245  162.1936 C.ar    1  UNL1        0.0985
     17 C         142.5751  137.8845  159.3654 C.3     1  UNL1        0.1876
     18 O         143.6132  138.8213  158.8224 O.3     1  UNL1       -0.3447
     19 C         143.4942  140.2963  159.0679 C.3     1  UNL1        0.1747
     20 C         141.4192  141.3974  170.6824 C.2     1  UNL1        0.2455
     21 N         142.3724  140.6010  171.5233 N.am    1  UNL1       -0.3252
     22 O         141.2751  142.8736  170.9060 O.2     1  UNL1       -0.2703
     23 H         142.4670  139.6321  171.3765 H       1  UNL1        0.1453
     24 H         142.9034  141.0472  172.2220 H       1  UNL1        0.1453
     25 N         142.6137  140.9063  167.9746 N.pl3   1  UNL1       -0.3325
     26 H         143.3636  140.2916  168.1449 H       1  UNL1        0.1468
     27 C         142.8774  142.2772  167.4257 C.3     1  UNL1        0.0870
     28 C         142.9116  142.4973  165.9424 C.3     1  UNL1        0.0195
     29 C         140.4079  143.1901  165.9743 C.3     1  UNL1        0.0001
     30 C         141.7063  143.0452  165.2374 C.3     1  UNL1        0.0017
     31 C         144.1513  142.1694  165.1639 C.3     1  UNL1        0.0017
     32 C         144.2462  140.8725  164.4162 C.3     1  UNL1        0.0001
@<TRIPOS>BOND
     1    29    30    1
     2    30    28    1
     3    28    31    1
     4    31    32    1
     5    28    27    1
     6    27    25    1
     7    25     1    1
     8     1     2   ar
     9     2    20    1
    10    20    21   am
    11    20    22    2
    12     2     3   ar
    13     3     4   ar
    14     4     5   ar
    15     5     6   ar
    16     6     7   ar
    17     7     8   ar
    18     8    11    1
    19    11    12   ar
    20    12    13   ar
    21    13    14   ar
    22    14    17    1
    23    17    18    1
    24    18    19    1
    25    14    15   ar
    26    15    16   ar
    27     8     9   ar
    28     9    10   ar
    29    10     1   ar
    30    10     5   ar
    31    16    11   ar
    32    25    26    1
    33    21    23    1
    34    21    24    1
@<TRIPOS>MOLECULE
*****
 32 34 0 0 0
SMALL
GASTEIGER

@<TRIPOS>ATOM
      1 C         140.4952  141.5706  168.0570 C.ar    1  UNL1        0.0519
      2 C         140.3095  141.6981  169.5400 C.ar    1  UNL1        0.0853
      3 C         139.3374  140.8060  170.2535 C.ar    1  UNL1        0.1045
      4 N         138.5510  139.7864  169.4842 N.ar    1  UNL1       -0.2436
      5 C         138.7367  139.6589  168.0011 C.ar    1  UNL1        0.0825
      6 C         137.9503  138.6393  167.2317 C.ar    1  UNL1        0.0191
      7 C         138.1360  138.5119  165.7488 C.ar    1  UNL1        0.0016
      8 C         139.1080  139.4040  165.0352 C.ar    1  UNL1        0.0016
      9 C         139.8944  140.4236  165.8046 C.ar    1  UNL1        0.0028
     10 C         139.7088  140.5510  167.2875 C.ar    1  UNL1        0.0309
     11 C         139.2937  139.2765  163.5521 C.ar    1  UNL1        0.0192
     12 C         138.5437  138.2244  162.7901 C.ar    1  UNL1        0.0028
     13 C         138.7294  138.0970  161.3071 C.ar    1  UNL1        0.0173
     14 C         139.6650  139.0215  160.5861 C.ar    1  UNL1        0.0888
     15 N         140.4150  140.0736  161.3482 N.ar    1  UNL1       -0.2457
     16 C         140.2293  140.2011  162.8312 C.ar    1  UNL1        0.0985
     17 C         139.8507  138.8941  159.1032 C.3     1  UNL1        0.1876
     18 O         138.7924  139.4006  158.1686 O.3     1  UNL1       -0.3447
     19 C         137.9658  140.5937  158.5474 C.3     1  UNL1        0.1747
     20 C         141.0959  142.7177  170.3094 C.2     1  UNL1        0.2455
     21 N         142.1363  142.2748  171.2951 N.am    1  UNL1       -0.3252
     22 O         140.8420  144.1801  170.0932 O.2     1  UNL1       -0.2703
     23 H         142.3029  141.3149  171.4370 H       1  UNL1        0.1453
     24 H         142.6524  142.9439  171.8001 H       1  UNL1        0.1453
     25 N         141.4673  142.4627  167.3434 N.pl3   1  UNL1       -0.3325
     26 H         141.1670  143.3272  166.9805 H       1  UNL1        0.1468
     27 C         142.8968  142.0377  167.1829 C.3     1  UNL1        0.0870
     28 C         143.3707  141.4792  165.8738 C.3     1  UNL1        0.0195
     29 C         144.5246  143.6968  165.1664 C.3     1  UNL1        0.0001
     30 C         143.8623  142.4022  164.7986 C.3     1  UNL1        0.0017
     31 C         143.3530  139.9976  165.6401 C.3     1  UNL1        0.0017
     32 C         143.0784  139.0618  166.7798 C.3     1  UNL1        0.0001
@<TRIPOS>BOND
     1    29    30    1
     2    30    28    1
     3    28    31    1
     4    31    32    1
     5    28    27    1
     6    27    25    1
     7    25     1    1
     8     1     2   ar
     9     2    20    1
    10    20    21   am
    11    20    22    2
    12     2     3   ar
    13     3     4   ar
    14     4     5   ar
    15     5     6   ar
    16     6     7   ar
    17     7     8   ar
    18     8    11    1
    19    11    12   ar
    20    12    13   ar
    21    13    14   ar
    22    14    17    1
    23    17    18    1
    24    18    19    1
    25    14    15   ar
    26    15    16   ar
    27     8     9   ar
    28     9    10   ar
    29    10     1   ar
    30    10     5   ar
    31    16    11   ar
    32    25    26    1
    33    21    23    1
    34    21    24    1
@<TRIPOS>MOLECULE
*****
 32 34 0 0 0
SMALL
GASTEIGER

@<TRIPOS>ATOM
      1 C         141.2114  140.4540  168.2642 C.ar    1  UNL1        0.0519
      2 C         140.5699  140.7264  169.5924 C.ar    1  UNL1        0.0853
      3 C         139.1491  140.3129  169.8380 C.ar    1  UNL1        0.1045
      4 N         138.3698  139.6271  168.7553 N.ar    1  UNL1       -0.2436
      5 C         139.0113  139.3547  167.4270 C.ar    1  UNL1        0.0825
      6 C         138.2320  138.6688  166.3443 C.ar    1  UNL1        0.0191
      7 C         138.8735  138.3965  165.0160 C.ar    1  UNL1        0.0016
      8 C         140.2943  138.8100  164.7705 C.ar    1  UNL1        0.0016
      9 C         141.0736  139.4958  165.8532 C.ar    1  UNL1        0.0028
     10 C         140.4321  139.7682  167.1814 C.ar    1  UNL1        0.0309
     11 C         140.9358  138.5376  163.4422 C.ar    1  UNL1        0.0192
     12 C         142.4037  138.2389  163.3654 C.ar    1  UNL1        0.0028
     13 C         143.0452  137.9665  162.0370 C.ar    1  UNL1        0.0173
     14 C         142.2187  137.9929  160.7856 C.ar    1  UNL1        0.0888
     15 N         140.7507  138.2915  160.8624 N.ar    1  UNL1       -0.2457
     16 C         140.1093  138.5639  162.1907 C.ar    1  UNL1        0.0985
     17 C         142.8601  137.7205  159.4573 C.3     1  UNL1        0.1876
     18 O         143.3101  138.8614  158.5938 O.3     1  UNL1       -0.3447
     19 C         143.7717  140.1422  159.2237 C.3     1  UNL1        0.1747
     20 C         141.3493  141.4123  170.6752 C.2     1  UNL1        0.2455
     21 N         142.3007  140.6259  171.5275 N.am    1  UNL1       -0.3252
     22 O         141.1771  142.8844  170.9056 O.2     1  UNL1       -0.2703
     23 H         142.4137  139.6597  171.3762 H       1  UNL1        0.1453
     24 H         142.8122  141.0761  172.2381 H       1  UNL1        0.1453
     25 N         142.6322  140.8675  168.0186 N.pl3   1  UNL1       -0.3325
     26 H         143.3704  140.2670  168.2712 H       1  UNL1        0.1468
     27 C         142.9284  142.1961  167.3881 C.3     1  UNL1        0.0870
     28 C         142.8928  142.3426  165.8957 C.3     1  UNL1        0.0195
     29 C         143.8169  141.6613  163.5651 C.3     1  UNL1        0.0001
     30 C         143.9720  141.7265  165.0556 C.3     1  UNL1        0.0017
     31 C         141.7779  143.1052  165.2434 C.3     1  UNL1        0.0017
     32 C         140.4276  143.1631  165.8942 C.3     1  UNL1        0.0001
@<TRIPOS>BOND
     1    29    30    1
     2    30    28    1
     3    28    31    1
     4    31    32    1
     5    28    27    1
     6    27    25    1
     7    25     1    1
     8     1     2   ar
     9     2    20    1
    10    20    21   am
    11    20    22    2
    12     2     3   ar
    13     3     4   ar
    14     4     5   ar
    15     5     6   ar
    16     6     7   ar
    17     7     8   ar
    18     8    11    1
    19    11    12   ar
    20    12    13   ar
    21    13    14   ar
    22    14    17    1
    23    17    18    1
    24    18    19    1
    25    14    15   ar
    26    15    16   ar
    27     8     9   ar
    28     9    10   ar
    29    10     1   ar
    30    10     5   ar
    31    16    11   ar
    32    25    26    1
    33    21    23    1
    34    21    24    1
@<TRIPOS>MOLECULE
*****
 32 34 0 0 0
SMALL
GASTEIGER

@<TRIPOS>ATOM
      1 C         140.5460  141.5707  168.0384 C.ar    1  UNL1        0.0519
      2 C         140.3617  141.7005  169.5213 C.ar    1  UNL1        0.0853
      3 C         139.3857  140.8137  170.2363 C.ar    1  UNL1        0.1045
      4 N         138.5940  139.7972  169.4683 N.ar    1  UNL1       -0.2436
      5 C         138.7783  139.6673  167.9853 C.ar    1  UNL1        0.0825
      6 C         137.9867  138.6508  167.2173 C.ar    1  UNL1        0.0191
      7 C         138.1710  138.5210  165.7343 C.ar    1  UNL1        0.0016
      8 C         139.1470  139.4078  165.0194 C.ar    1  UNL1        0.0016
      9 C         139.9386  140.4243  165.7874 C.ar    1  UNL1        0.0028
     10 C         139.7543  140.5541  167.2703 C.ar    1  UNL1        0.0309
     11 C         139.3313  139.2779  163.5364 C.ar    1  UNL1        0.0192
     12 C         140.2837  140.1861  162.8166 C.ar    1  UNL1        0.0028
     13 C         140.4680  140.0563  161.3336 C.ar    1  UNL1        0.0173
     14 C         139.6998  139.0182  160.5704 C.ar    1  UNL1        0.0888
     15 N         138.7474  138.1100  161.2903 N.ar    1  UNL1       -0.2457
     16 C         138.5631  138.2399  162.7732 C.ar    1  UNL1        0.0985
     17 C         139.8841  138.8884  159.0875 C.3     1  UNL1        0.1876
     18 O         138.8166  139.3764  158.1536 O.3     1  UNL1       -0.3447
     19 C         137.9869  140.5707  158.5214 C.3     1  UNL1        0.1747
     20 C         141.1534  142.7171  170.2894 C.2     1  UNL1        0.2455
     21 N         142.1769  142.2701  171.2907 N.am    1  UNL1       -0.3252
     22 O         140.9215  144.1805  170.0562 O.2     1  UNL1       -0.2703
     23 H         142.3290  141.3095  171.4438 H       1  UNL1        0.1453
     24 H         142.6965  142.9373  171.7949 H       1  UNL1        0.1453
     25 N         141.5220  142.4574  167.3235 N.pl3   1  UNL1       -0.3325
     26 H         141.2474  143.3565  167.0309 H       1  UNL1        0.1468
     27 C         142.9164  141.9744  167.0543 C.3     1  UNL1        0.0870
     28 C         143.3630  141.7199  165.6451 C.3     1  UNL1        0.0195
     29 C         143.2406  139.1569  166.0522 C.3     1  UNL1        0.0001
     30 C         143.6265  140.3173  165.1836 C.3     1  UNL1        0.0017
     31 C         143.5461  142.8682  164.6975 C.3     1  UNL1        0.0017
     32 C         142.9176  142.8247  163.3362 C.3     1  UNL1        0.0001
@<TRIPOS>BOND
     1    29    30    1
     2    30    28    1
     3    28    31    1
     4    31    32    1
     5    28    27    1
     6    27    25    1
     7    25     1    1
     8     1     2   ar
     9     2    20    1
    10    20    21   am
    11    20    22    2
    12     2     3   ar
    13     3     4   ar
    14     4     5   ar
    15     5     6   ar
    16     6     7   ar
    17     7     8   ar
    18     8    11    1
    19    11    12   ar
    20    12    13   ar
    21    13    14   ar
    22    14    17    1
    23    17    18    1
    24    18    19    1
    25    14    15   ar
    26    15    16   ar
    27     8     9   ar
    28     9    10   ar
    29    10     1   ar
    30    10     5   ar
    31    16    11   ar
    32    25    26    1
    33    21    23    1
    34    21    24    1
@<TRIPOS>MOLECULE
*****
 32 34 0 0 0
SMALL
GASTEIGER

@<TRIPOS>ATOM
      1 C         140.9311  140.4536  167.3179 C.ar    1  UNL1        0.0519
      2 C         140.8551  140.2438  168.8012 C.ar    1  UNL1        0.0853
      3 C         141.8865  139.4031  169.4935 C.ar    1  UNL1        0.1045
      4 N         142.9940  138.7722  168.7027 N.ar    1  UNL1       -0.2436
      5 C         143.0700  138.9820  167.2193 C.ar    1  UNL1        0.0825
      6 C         144.1774  138.3511  166.4284 C.ar    1  UNL1        0.0191
      7 C         144.2534  138.5609  164.9451 C.ar    1  UNL1        0.0016
      8 C         143.2220  139.4016  164.2528 C.ar    1  UNL1        0.0016
      9 C         142.1146  140.0325  165.0436 C.ar    1  UNL1        0.0028
     10 C         142.0386  139.8227  166.5269 C.ar    1  UNL1        0.0309
     11 C         143.2981  139.6114  162.7694 C.ar    1  UNL1        0.0192
     12 C         142.6656  140.8222  162.1498 C.ar    1  UNL1        0.0028
     13 C         142.7417  141.0320  160.6664 C.ar    1  UNL1        0.0173
     14 C         143.4502  140.0310  159.8028 C.ar    1  UNL1        0.0888
     15 N         144.0827  138.8202  160.4224 N.ar    1  UNL1       -0.2457
     16 C         144.0066  138.6104  161.9057 C.ar    1  UNL1        0.0985
     17 C         143.5263  140.2407  158.3195 C.3     1  UNL1        0.1876
     18 O         144.6191  141.0869  157.7368 O.3     1  UNL1       -0.3447
     19 C         145.2819  140.6778  156.4548 C.3     1  UNL1        0.1747
     20 C         139.7476  140.8746  169.5921 C.2     1  UNL1        0.2455
     21 N         138.6959  140.0146  170.2279 N.am    1  UNL1       -0.3252
     22 O         139.6919  142.3655  169.7473 O.2     1  UNL1       -0.2703
     23 H         138.7325  139.0360  170.1260 H       1  UNL1        0.1453
     24 H         137.9690  140.4286  170.7470 H       1  UNL1        0.1453
     25 N         139.8997  141.2943  166.6255 N.pl3   1  UNL1       -0.3325
     26 H         139.9172  142.2738  166.7223 H       1  UNL1        0.1468
     27 C         138.8415  140.6424  165.7856 C.3     1  UNL1        0.0870
     28 C         138.5502  139.1800  165.9481 C.3     1  UNL1        0.0195
     29 C         137.2283  137.2861  167.1378 C.3     1  UNL1        0.0001
     30 C         137.7118  138.7055  167.0977 C.3     1  UNL1        0.0017
     31 C         139.0975  138.1920  164.9608 C.3     1  UNL1        0.0017
     32 C         138.8003  138.3494  163.4990 C.3     1  UNL1        0.0001
@<TRIPOS>BOND
     1    29    30    1
     2    30    28    1
     3    28    31    1
     4    31    32    1
     5    28    27    1
     6    27    25    1
     7    25     1    1
     8     1     2   ar
     9     2    20    1
    10    20    21   am
    11    20    22    2
    12     2     3   ar
    13     3     4   ar
    14     4     5   ar
    15     5     6   ar
    16     6     7   ar
    17     7     8   ar
    18     8    11    1
    19    11    12   ar
    20    12    13   ar
    21    13    14   ar
    22    14    17    1
    23    17    18    1
    24    18    19    1
    25    14    15   ar
    26    15    16   ar
    27     8     9   ar
    28     9    10   ar
    29    10     1   ar
    30    10     5   ar
    31    16    11   ar
    32    25    26    1
    33    21    23    1
    34    21    24    1
@<TRIPOS>MOLECULE
*****
 32 34 0 0 0
SMALL
GASTEIGER

@<TRIPOS>ATOM
      1 C         140.0953  141.8228  167.5908 C.ar    1  UNL1        0.0519
      2 C         140.0040  141.8829  169.0867 C.ar    1  UNL1        0.0853
      3 C         139.3414  140.7698  169.8430 C.ar    1  UNL1        0.1045
      4 N         138.7701  139.5966  169.1034 N.ar    1  UNL1       -0.2436
      5 C         138.8614  139.5364  167.6073 C.ar    1  UNL1        0.0825
      6 C         138.2901  138.3632  166.8676 C.ar    1  UNL1        0.0191
      7 C         138.3813  138.3031  165.3716 C.ar    1  UNL1        0.0016
      8 C         139.0439  139.4162  164.6153 C.ar    1  UNL1        0.0016
      9 C         139.6152  140.5894  165.3550 C.ar    1  UNL1        0.0028
     10 C         139.5240  140.6495  166.8510 C.ar    1  UNL1        0.0309
     11 C         139.1352  139.3561  163.1193 C.ar    1  UNL1        0.0192
     12 C         139.5066  140.5831  162.3406 C.ar    1  UNL1        0.0028
     13 C         139.5979  140.5230  160.8445 C.ar    1  UNL1        0.0173
     14 C         139.3176  139.2358  160.1272 C.ar    1  UNL1        0.0888
     15 N         138.9462  138.0087  160.9060 N.ar    1  UNL1       -0.2457
     16 C         138.8549  138.0689  162.4020 C.ar    1  UNL1        0.0985
     17 C         139.4089  139.1756  158.6312 C.3     1  UNL1        0.1876
     18 O         139.8532  140.3815  157.8579 O.3     1  UNL1       -0.3447
     19 C         139.0978  140.8080  156.6341 C.3     1  UNL1        0.1747
     20 C         140.5753  143.0561  169.8265 C.2     1  UNL1        0.2455
     21 N         141.7465  142.8660  170.7442 N.am    1  UNL1       -0.3252
     22 O         139.9755  144.4193  169.6485 O.2     1  UNL1       -0.2703
     23 H         142.1402  141.9713  170.8610 H       1  UNL1        0.1453
     24 H         142.1215  143.6360  171.2297 H       1  UNL1        0.1453
     25 N         140.7579  142.9359  166.8344 N.pl3   1  UNL1       -0.3325
     26 H         141.7362  142.9424  166.7248 H       1  UNL1        0.1468
     27 C         139.9297  144.0391  166.2451 C.3     1  UNL1        0.0870
     28 C         139.5843  144.0199  164.7856 C.3     1  UNL1        0.0195
     29 C         137.7783  143.7948  162.9315 C.3     1  UNL1        0.0001
     30 C         138.1500  144.0957  164.3533 C.3     1  UNL1        0.0017
     31 C         140.6733  143.9250  163.7583 C.3     1  UNL1        0.0017
     32 C         141.2887  145.1739  163.2002 C.3     1  UNL1        0.0001
@<TRIPOS>BOND
     1    29    30    1
     2    30    28    1
     3    28    31    1
     4    31    32    1
     5    28    27    1
     6    27    25    1
     7    25     1    1
     8     1     2   ar
     9     2    20    1
    10    20    21   am
    11    20    22    2
    12     2     3   ar
    13     3     4   ar
    14     4     5   ar
    15     5     6   ar
    16     6     7   ar
    17     7     8   ar
    18     8    11    1
    19    11    12   ar
    20    12    13   ar
    21    13    14   ar
    22    14    17    1
    23    17    18    1
    24    18    19    1
    25    14    15   ar
    26    15    16   ar
    27     8     9   ar
    28     9    10   ar
    29    10     1   ar
    30    10     5   ar
    31    16    11   ar
    32    25    26    1
    33    21    23    1
    34    21    24    1
@<TRIPOS>MOLECULE
*****
 32 34 0 0 0
SMALL
GASTEIGER

@<TRIPOS>ATOM
      1 C         139.0873  141.0784  161.6886 C.ar    1  UNL1        0.0519
      2 C         138.5811  141.3534  160.3036 C.ar    1  UNL1        0.0853
      3 C         138.6858  142.7343  159.7272 C.ar    1  UNL1        0.1045
      4 N         139.2966  143.8402  160.5358 N.ar    1  UNL1       -0.2436
      5 C         139.8028  143.5652  161.9208 C.ar    1  UNL1        0.0825
      6 C         140.4137  144.6711  162.7294 C.ar    1  UNL1        0.0191
      7 C         140.9198  144.3962  164.1143 C.ar    1  UNL1        0.0016
      8 C         140.8152  143.0153  164.6907 C.ar    1  UNL1        0.0016
      9 C         140.2044  141.9094  163.8821 C.ar    1  UNL1        0.0028
     10 C         139.6982  142.1844  162.4972 C.ar    1  UNL1        0.0309
     11 C         141.3214  142.7403  166.0757 C.ar    1  UNL1        0.0192
     12 C         142.7724  142.4304  166.2961 C.ar    1  UNL1        0.0028
     13 C         143.2786  142.1555  167.6812 C.ar    1  UNL1        0.0173
     14 C         142.3338  142.1905  168.8457 C.ar    1  UNL1        0.0888
     15 N         140.8828  142.5004  168.6252 N.ar    1  UNL1       -0.2457
     16 C         140.3766  142.7753  167.2402 C.ar    1  UNL1        0.0985
     17 C         142.8400  141.9155  170.2307 C.3     1  UNL1        0.1876
     18 O         142.5842  140.5840  170.8721 O.3     1  UNL1       -0.3447
     19 C         142.3032  139.3823  170.0193 C.3     1  UNL1        0.1747
     20 C         137.9702  140.2475  159.4950 C.2     1  UNL1        0.2455
     21 N         138.5039  139.9346  158.1285 N.am    1  UNL1       -0.3252
     22 O         136.8258  139.4544  160.0529 O.2     1  UNL1       -0.2703
     23 H         139.2551  140.4551  157.7623 H       1  UNL1        0.1453
     24 H         138.1030  139.2088  157.5977 H       1  UNL1        0.1453
     25 N         138.9827  139.6975  162.2649 N.pl3   1  UNL1       -0.3325
     26 H         139.5032  138.9597  161.8728 H       1  UNL1        0.1468
     27 C         138.0848  139.4409  163.4389 C.3     1  UNL1        0.0870
     28 C         138.6400  138.8189  164.6858 C.3     1  UNL1        0.0195
     29 C         141.0672  137.9071  164.8516 C.3     1  UNL1        0.0001
     30 C         139.6085  137.6777  164.5876 C.3     1  UNL1        0.0017
     31 C         138.2267  139.3381  166.0311 C.3     1  UNL1        0.0017
     32 C         137.5822  138.4175  167.0246 C.3     1  UNL1        0.0001
@<TRIPOS>BOND
     1    29    30    1
     2    30    28    1
     3    28    31    1
     4    31    32    1
     5    28    27    1
     6    27    25    1
     7    25     1    1
     8     1     2   ar
     9     2    20    1
    10    20    21   am
    11    20    22    2
    12     2     3   ar
    13     3     4   ar
    14     4     5   ar
    15     5     6   ar
    16     6     7   ar
    17     7     8   ar
    18     8    11    1
    19    11    12   ar
    20    12    13   ar
    21    13    14   ar
    22    14    17    1
    23    17    18    1
    24    18    19    1
    25    14    15   ar
    26    15    16   ar
    27     8     9   ar
    28     9    10   ar
    29    10     1   ar
    30    10     5   ar
    31    16    11   ar
    32    25    26    1
    33    21    23    1
    34    21    24    1
@<TRIPOS>MOLECULE
*****
 32 34 0 0 0
SMALL
GASTEIGER

@<TRIPOS>ATOM
      1 C         140.7654  140.4823  167.5483 C.ar    1  UNL1        0.0519
      2 C         140.7378  140.2938  169.0361 C.ar    1  UNL1        0.0853
      3 C         141.8002  139.4756  169.7083 C.ar    1  UNL1        0.1045
      4 N         142.8902  138.8458  168.8927 N.ar    1  UNL1       -0.2436
      5 C         142.9178  139.0343  167.4047 C.ar    1  UNL1        0.0825
      6 C         144.0078  138.4045  166.5891 C.ar    1  UNL1        0.0191
      7 C         144.0354  138.5930  165.1013 C.ar    1  UNL1        0.0016
      8 C         142.9730  139.4112  164.4291 C.ar    1  UNL1        0.0016
      9 C         141.8830  140.0410  165.2447 C.ar    1  UNL1        0.0028
     10 C         141.8554  139.8525  166.7326 C.ar    1  UNL1        0.0309
     11 C         143.0006  139.5997  162.9412 C.ar    1  UNL1        0.0192
     12 C         142.1433  140.6518  162.3024 C.ar    1  UNL1        0.0028
     13 C         142.1709  140.8402  160.8145 C.ar    1  UNL1        0.0173
     14 C         143.0559  139.9766  159.9655 C.ar    1  UNL1        0.0888
     15 N         143.9133  138.9245  160.6043 N.ar    1  UNL1       -0.2457
     16 C         143.8856  138.7361  162.0921 C.ar    1  UNL1        0.0985
     17 C         143.0836  140.1650  158.4776 C.3     1  UNL1        0.1876
     18 O         144.3512  139.9201  157.7141 O.3     1  UNL1       -0.3447
     19 C         145.0848  141.0700  157.0898 C.3     1  UNL1        0.1747
     20 C         139.6478  140.9236  169.8518 C.2     1  UNL1        0.2455
     21 N         139.7443  142.3679  170.2449 N.am    1  UNL1       -0.3252
     22 O         138.4613  140.1090  170.2745 O.2     1  UNL1       -0.2703
     23 H         140.5231  142.9026  169.9675 H       1  UNL1        0.1453
     24 H         139.0289  142.7813  170.7803 H       1  UNL1        0.1453
     25 N         139.7030  141.3005  166.8761 N.pl3   1  UNL1       -0.3325
     26 H         138.8363  140.8919  166.6500 H       1  UNL1        0.1468
     27 C         139.9611  142.7414  166.5485 C.3     1  UNL1        0.0870
     28 C         139.7136  143.2506  165.1594 C.3     1  UNL1        0.0195
     29 C         137.8178  144.0803  163.5886 C.3     1  UNL1        0.0001
     30 C         138.3789  143.0373  164.5091 C.3     1  UNL1        0.0017
     31 C         140.8009  143.9732  164.4207 C.3     1  UNL1        0.0017
     32 C         142.2301  143.5488  164.5862 C.3     1  UNL1        0.0001
@<TRIPOS>BOND
     1    29    30    1
     2    30    28    1
     3    28    31    1
     4    31    32    1
     5    28    27    1
     6    27    25    1
     7    25     1    1
     8     1     2   ar
     9     2    20    1
    10    20    21   am
    11    20    22    2
    12     2     3   ar
    13     3     4   ar
    14     4     5   ar
    15     5     6   ar
    16     6     7   ar
    17     7     8   ar
    18     8    11    1
    19    11    12   ar
    20    12    13   ar
    21    13    14   ar
    22    14    17    1
    23    17    18    1
    24    18    19    1
    25    14    15   ar
    26    15    16   ar
    27     8     9   ar
    28     9    10   ar
    29    10     1   ar
    30    10     5   ar
    31    16    11   ar
    32    25    26    1
    33    21    23    1
    34    21    24    1
@<TRIPOS>MOLECULE
*****
 32 34 0 0 0
SMALL
GASTEIGER

@<TRIPOS>ATOM
      1 C         141.7015  141.6786  167.7755 C.ar    1  UNL1        0.0519
      2 C         141.5295  141.4199  169.2429 C.ar    1  UNL1        0.0853
      3 C         142.0342  140.1413  169.8432 C.ar    1  UNL1        0.1045
      4 N         142.7109  139.1214  168.9761 N.ar    1  UNL1       -0.2436
      5 C         142.8829  139.3801  167.5086 C.ar    1  UNL1        0.0825
      6 C         143.5596  138.3603  166.6415 C.ar    1  UNL1        0.0191
      7 C         143.7315  138.6191  165.1740 C.ar    1  UNL1        0.0016
      8 C         143.2268  139.8977  164.5737 C.ar    1  UNL1        0.0016
      9 C         142.5501  140.9175  165.4408 C.ar    1  UNL1        0.0028
     10 C         142.3782  140.6588  166.9083 C.ar    1  UNL1        0.0309
     11 C         143.3988  140.1564  163.1062 C.ar    1  UNL1        0.0192
     12 C         143.0566  141.5011  162.5365 C.ar    1  UNL1        0.0028
     13 C         143.2286  141.7599  161.0690 C.ar    1  UNL1        0.0173
     14 C         143.7428  140.6738  160.1712 C.ar    1  UNL1        0.0888
     15 N         144.0851  139.3290  160.7409 N.ar    1  UNL1       -0.2457
     16 C         143.9131  139.0704  162.2084 C.ar    1  UNL1        0.0985
     17 C         143.9148  140.9325  158.7038 C.3     1  UNL1        0.1876
     18 O         144.3972  142.2714  158.2297 O.3     1  UNL1       -0.3447
     19 C         145.7704  142.4088  157.6419 C.3     1  UNL1        0.1747
     20 C         140.8528  142.4398  170.1101 C.2     1  UNL1        0.2455
     21 N         139.5580  142.1057  170.7898 N.am    1  UNL1       -0.3252
     22 O         141.4708  143.7936  170.2976 O.2     1  UNL1       -0.2703
     23 H         139.1524  141.2172  170.6668 H       1  UNL1        0.1453
     24 H         139.1139  142.7751  171.3590 H       1  UNL1        0.1453
     25 N         141.1967  142.9573  167.1752 N.pl3   1  UNL1       -0.3325
     26 H         141.6071  143.8156  167.4283 H       1  UNL1        0.1468
     27 C         140.0667  142.9281  166.1890 C.3     1  UNL1        0.0870
     28 C         139.9834  143.9697  165.1129 C.3     1  UNL1        0.0195
     29 C         141.0800  145.2477  163.1345 C.3     1  UNL1        0.0001
     30 C         141.1909  144.2879  164.2820 C.3     1  UNL1        0.0017
     31 C         138.6923  144.6931  164.8678 C.3     1  UNL1        0.0017
     32 C         137.6505  144.0865  163.9753 C.3     1  UNL1        0.0001
@<TRIPOS>BOND
     1    29    30    1
     2    30    28    1
     3    28    31    1
     4    31    32    1
     5    28    27    1
     6    27    25    1
     7    25     1    1
     8     1     2   ar
     9     2    20    1
    10    20    21   am
    11    20    22    2
    12     2     3   ar
    13     3     4   ar
    14     4     5   ar
    15     5     6   ar
    16     6     7   ar
    17     7     8   ar
    18     8    11    1
    19    11    12   ar
    20    12    13   ar
    21    13    14   ar
    22    14    17    1
    23    17    18    1
    24    18    19    1
    25    14    15   ar
    26    15    16   ar
    27     8     9   ar
    28     9    10   ar
    29    10     1   ar
    30    10     5   ar
    31    16    11   ar
    32    25    26    1
    33    21    23    1
    34    21    24    1
