@<TRIPOS>MOLECULE
*****
 34 38 0 0 0
SMALL
GASTEIGER

@<TRIPOS>ATOM
      1 C         142.2573  142.9767  165.2920 C.ar    1  UNL1        0.0906
      2 C         141.4847  142.6252  166.5287 C.ar    1  UNL1        0.1493
      3 O         140.1062  143.2008  166.3932 O.2     1  UNL1       -0.4534
      4 C         140.0269  143.9080  165.0727 C.ar    1  UNL1        0.1454
      5 C         138.9158  144.6602  164.4022 C.ar    1  UNL1        0.0406
      6 C         139.1343  145.2739  163.0510 C.ar    1  UNL1        0.0395
      7 C         140.4638  145.1354  162.3705 C.ar    1  UNL1        0.1311
      8 O         140.6823  145.7491  161.0192 O.3     1  UNL1       -0.5058
      9 C         141.5749  144.3832  163.0410 C.ar    1  UNL1        0.0308
     10 C         141.3564  143.7695  164.3922 C.ar    1  UNL1        0.0421
     11 H         139.9882  146.2190  160.6004 H       1  UNL1        0.2922
     12 C         142.0000  141.8366  167.6960 C.ar    1  UNL1        0.0310
     13 C         142.9118  142.4848  168.6952 C.ar    1  UNL1        0.0058
     14 C         143.4272  141.6962  169.8624 C.ar    1  UNL1        0.0367
     15 C         143.0307  140.2594  170.0305 C.ar    1  UNL1        0.1334
     16 O         143.5460  139.4707  171.1978 O.3     1  UNL1       -0.5055
     17 C         142.1189  139.6111  169.0314 C.ar    1  UNL1        0.0325
     18 C         141.6035  140.3998  167.8641 C.ar    1  UNL1       -0.0159
     19 C         140.6917  139.7515  166.8649 C.3     1  UNL1        0.0312
     20 H         144.1156  139.8757  171.8219 H       1  UNL1        0.2922
     21 C         145.4107  140.9686  163.9598 C.3     1  UNL1        0.1109
     22 N         143.9870  141.3441  164.2464 N.am    1  UNL1       -0.2991
     23 C         143.6810  142.6013  165.0054 C.2     1  UNL1        0.2490
     24 O         144.7988  143.4828  165.4778 O.2     1  UNL1       -0.2700
     25 H         143.2533  140.7654  163.9363 H       1  UNL1        0.1498
     26 C         142.9044  144.2447  162.3605 C.3     1  UNL1        0.1023
     27 N         143.1870  143.0465  161.5035 N.3     1  UNL1       -0.2687
     28 C         144.4861  142.7383  160.8196 C.3     1  UNL1        0.0726
     29 C         144.3222  141.4475  160.0733 C.3     1  UNL1        0.0235
     30 C         142.9219  140.9579  160.2959 C.3     1  UNL1        0.0707
     31 C         141.5831  140.2869  160.3817 C.3     1  UNL1        0.1458
     32 O         142.0814  139.1801  159.5004 O.3     1  UNL1       -0.3535
     33 C         143.4202  139.8511  159.4146 C.3     1  UNL1        0.1458
     34 C         142.2203  141.9462  161.1798 C.3     1  UNL1        0.0772
@<TRIPOS>BOND
     1    21    22    1
     2    22    23   am
     3    23    24    2
     4    23     1    1
     5     1     2   ar
     6     2    12    1
     7    12    13   ar
     8    13    14   ar
     9    14    15   ar
    10    15    16    1
    11    15    17   ar
    12    17    18   ar
    13    18    19    1
    14     2     3   ar
    15     3     4   ar
    16     4     5   ar
    17     5     6   ar
    18     6     7   ar
    19     7     8    1
    20     7     9   ar
    21     9    26    1
    22    26    27    1
    23    27    28    1
    24    28    29    1
    25    29    30    1
    26    30    31    1
    27    31    32    1
    28    32    33    1
    29    30    34    1
    30     9    10   ar
    31    10     1   ar
    32    18    12   ar
    33    10     4   ar
    34    34    27    1
    35    33    30    1
    36    22    25    1
    37    16    20    1
    38     8    11    1
@<TRIPOS>MOLECULE
*****
 34 38 0 0 0
SMALL
GASTEIGER

@<TRIPOS>ATOM
      1 C         139.6793  141.3788  165.8077 C.ar    1  UNL1        0.0906
      2 C         140.1545  142.2531  166.9301 C.ar    1  UNL1        0.1493
      3 O         139.9254  143.6815  166.5338 O.2     1  UNL1       -0.4534
      4 C         139.3087  143.6900  165.1665 C.ar    1  UNL1        0.1454
      5 C         138.8659  144.8098  164.2721 C.ar    1  UNL1        0.0406
      6 C         138.2711  144.5064  162.9290 C.ar    1  UNL1        0.0395
      7 C         138.1190  143.0832  162.4802 C.ar    1  UNL1        0.1311
      8 O         137.5241  142.7799  161.1370 O.3     1  UNL1       -0.5058
      9 C         138.5617  141.9634  163.3746 C.ar    1  UNL1        0.0308
     10 C         139.1566  142.2668  164.7177 C.ar    1  UNL1        0.0421
     11 H         137.2475  143.4794  160.5783 H       1  UNL1        0.2922
     12 C         140.7536  141.7817  168.2220 C.ar    1  UNL1        0.0310
     13 C         139.8631  141.3208  169.3376 C.ar    1  UNL1        0.0058
     14 C         140.4622  140.8494  170.6295 C.ar    1  UNL1        0.0367
     15 C         141.9517  140.8390  170.8057 C.ar    1  UNL1        0.1334
     16 O         142.5508  140.3676  172.0976 O.3     1  UNL1       -0.5055
     17 C         142.8422  141.2998  169.6901 C.ar    1  UNL1        0.0325
     18 C         142.2431  141.7712  168.3983 C.ar    1  UNL1       -0.0159
     19 C         143.1337  142.2321  167.2826 C.3     1  UNL1        0.0312
     20 H         141.9945  140.0797  172.7945 H       1  UNL1        0.2922
     21 C         138.4833  137.5946  165.8008 C.3     1  UNL1        0.1109
     22 N         138.4428  139.0938  165.8284 N.am    1  UNL1       -0.2991
     23 C         139.7197  139.8795  165.7801 C.2     1  UNL1        0.2490
     24 O         141.0369  139.1660  165.7043 O.2     1  UNL1       -0.2700
     25 H         137.5783  139.5621  165.8781 H       1  UNL1        0.1498
     26 C         138.4096  140.5402  162.9259 C.3     1  UNL1        0.1023
     27 N         139.6217  139.7344  162.5636 N.3     1  UNL1       -0.2687
     28 C         139.6743  138.2437  162.4047 C.3     1  UNL1        0.0726
     29 C         141.0792  137.8657  162.0396 C.3     1  UNL1        0.0235
     30 C         141.8950  139.1228  161.9729 C.3     1  UNL1        0.0707
     31 C         142.8903  140.2383  161.8503 C.3     1  UNL1        0.1458
     32 O         143.9600  139.2457  161.5030 O.3     1  UNL1       -0.3535
     33 C         142.9646  138.1302  161.6255 C.3     1  UNL1        0.1458
     34 C         140.9942  140.2777  162.2968 C.3     1  UNL1        0.0772
@<TRIPOS>BOND
     1    21    22    1
     2    22    23   am
     3    23    24    2
     4    23     1    1
     5     1     2   ar
     6     2    12    1
     7    12    13   ar
     8    13    14   ar
     9    14    15   ar
    10    15    16    1
    11    15    17   ar
    12    17    18   ar
    13    18    19    1
    14     2     3   ar
    15     3     4   ar
    16     4     5   ar
    17     5     6   ar
    18     6     7   ar
    19     7     8    1
    20     7     9   ar
    21     9    26    1
    22    26    27    1
    23    27    28    1
    24    28    29    1
    25    29    30    1
    26    30    31    1
    27    31    32    1
    28    32    33    1
    29    30    34    1
    30     9    10   ar
    31    10     1   ar
    32    18    12   ar
    33    10     4   ar
    34    34    27    1
    35    33    30    1
    36    22    25    1
    37    16    20    1
    38     8    11    1
@<TRIPOS>MOLECULE
*****
 34 38 0 0 0
SMALL
GASTEIGER

@<TRIPOS>ATOM
      1 C         141.5688  142.7645  165.3937 C.ar    1  UNL1        0.0906
      2 C         140.5026  142.9257  166.4364 C.ar    1  UNL1        0.1493
      3 O         139.4562  143.8512  165.8902 O.2     1  UNL1       -0.4534
      4 C         139.8757  144.2621  164.5099 C.ar    1  UNL1        0.1454
      5 C         139.2374  145.1610  163.4928 C.ar    1  UNL1        0.0406
      6 C         139.9048  145.3883  162.1688 C.ar    1  UNL1        0.0395
      7 C         141.2104  144.7166  161.8620 C.ar    1  UNL1        0.1311
      8 O         141.8778  144.9439  160.5379 O.3     1  UNL1       -0.5058
      9 C         141.8487  143.8177  162.8790 C.ar    1  UNL1        0.0308
     10 C         141.1813  143.5904  164.2030 C.ar    1  UNL1        0.0421
     11 H         141.4791  145.5054  159.9026 H       1  UNL1        0.2922
     12 C         140.4858  142.2755  167.7881 C.ar    1  UNL1        0.0310
     13 C         140.9982  143.0202  168.9850 C.ar    1  UNL1        0.0058
     14 C         140.9814  142.3700  170.3367 C.ar    1  UNL1        0.0367
     15 C         140.4522  140.9751  170.4914 C.ar    1  UNL1        0.1334
     16 O         140.4354  140.3248  171.8430 O.3     1  UNL1       -0.5055
     17 C         139.9398  140.2303  169.2944 C.ar    1  UNL1        0.0325
     18 C         139.9566  140.8805  167.9428 C.ar    1  UNL1       -0.0159
     19 C         139.4442  140.1357  166.7458 C.3     1  UNL1        0.0312
     20 H         140.7554  140.7901  172.5907 H       1  UNL1        0.2922
     21 C         143.9748  139.6083  165.3907 C.3     1  UNL1        0.1109
     22 N         142.7382  140.4480  165.2649 N.am    1  UNL1       -0.2991
     23 C         142.8053  141.9248  165.5195 C.2     1  UNL1        0.2490
     24 O         144.1090  142.5617  165.8999 O.2     1  UNL1       -0.2700
     25 H         141.8826  140.0299  165.0152 H       1  UNL1        0.1498
     26 C         143.1543  143.1460  162.5722 C.3     1  UNL1        0.1023
     27 N         143.1817  141.6918  162.2055 N.3     1  UNL1       -0.2687
     28 C         144.4109  140.8648  161.9701 C.3     1  UNL1        0.0726
     29 C         143.9736  139.4711  161.6289 C.3     1  UNL1        0.0235
     30 C         142.4742  139.4367  161.6533 C.3     1  UNL1        0.0707
     31 C         140.9975  139.1753  161.6201 C.3     1  UNL1        0.1458
     32 O         141.2591  137.7443  161.2541 O.3     1  UNL1       -0.3535
     33 C         142.7358  138.0059  161.2873 C.3     1  UNL1        0.1458
     34 C         141.9848  140.8092  162.0097 C.3     1  UNL1        0.0772
@<TRIPOS>BOND
     1    21    22    1
     2    22    23   am
     3    23    24    2
     4    23     1    1
     5     1     2   ar
     6     2    12    1
     7    12    13   ar
     8    13    14   ar
     9    14    15   ar
    10    15    16    1
    11    15    17   ar
    12    17    18   ar
    13    18    19    1
    14     2     3   ar
    15     3     4   ar
    16     4     5   ar
    17     5     6   ar
    18     6     7   ar
    19     7     8    1
    20     7     9   ar
    21     9    26    1
    22    26    27    1
    23    27    28    1
    24    28    29    1
    25    29    30    1
    26    30    31    1
    27    31    32    1
    28    32    33    1
    29    30    34    1
    30     9    10   ar
    31    10     1   ar
    32    18    12   ar
    33    10     4   ar
    34    34    27    1
    35    33    30    1
    36    22    25    1
    37    16    20    1
    38     8    11    1
@<TRIPOS>MOLECULE
*****
 34 38 0 0 0
SMALL
GASTEIGER

@<TRIPOS>ATOM
      1 C         140.2831  141.3330  165.4182 C.ar    1  UNL1        0.0906
      2 C         140.5029  142.0100  166.7386 C.ar    1  UNL1        0.1493
      3 O         139.8215  143.3456  166.6937 O.2     1  UNL1       -0.4534
      4 C         139.1807  143.4941  165.3456 C.ar    1  UNL1        0.1454
      5 C         138.3743  144.6012  164.7341 C.ar    1  UNL1        0.0406
      6 C         137.8532  144.4644  163.3342 C.ar    1  UNL1        0.0395
      7 C         138.1385  143.2205  162.5459 C.ar    1  UNL1        0.1311
      8 O         137.6173  143.0838  161.1460 O.3     1  UNL1       -0.5058
      9 C         138.9449  142.1134  163.1574 C.ar    1  UNL1        0.0308
     10 C         139.4660  142.2502  164.5573 C.ar    1  UNL1        0.0421
     11 H         137.1136  143.7754  160.7639 H       1  UNL1        0.2922
     12 C         141.2693  141.4498  167.8999 C.ar    1  UNL1        0.0310
     13 C         142.6596  141.9352  168.1852 C.ar    1  UNL1        0.0058
     14 C         143.4260  141.3749  169.3466 C.ar    1  UNL1        0.0367
     15 C         142.8022  140.3293  170.2225 C.ar    1  UNL1        0.1334
     16 O         143.5687  139.7690  171.3839 O.3     1  UNL1       -0.5055
     17 C         141.4120  139.8438  169.9372 C.ar    1  UNL1        0.0325
     18 C         140.6455  140.4041  168.7759 C.ar    1  UNL1       -0.0159
     19 C         139.2552  139.9186  168.4906 C.3     1  UNL1        0.0312
     20 H         144.4372  140.0723  171.5621 H       1  UNL1        0.2922
     21 C         142.6314  138.4853  163.9599 C.3     1  UNL1        0.1109
     22 N         142.1233  139.8414  164.3508 N.am    1  UNL1       -0.2991
     23 C         140.7913  139.9769  165.0273 C.2     1  UNL1        0.2490
     24 O         139.9675  138.7564  165.3128 O.2     1  UNL1       -0.2700
     25 H         142.6640  140.6425  164.1635 H       1  UNL1        0.1498
     26 C         139.2301  140.8696  162.3691 C.3     1  UNL1        0.1023
     27 N         140.5107  140.7478  161.5975 N.3     1  UNL1       -0.2687
     28 C         141.5552  141.8142  161.4486 C.3     1  UNL1        0.0726
     29 C         142.6616  141.2637  160.5985 C.3     1  UNL1        0.0235
     30 C         142.3010  139.8572  160.2219 C.3     1  UNL1        0.0707
     31 C         142.1451  138.4491  159.7293 C.3     1  UNL1        0.1458
     32 O         143.4664  138.5488  159.0261 O.3     1  UNL1       -0.3535
     33 C         143.6222  139.9570  159.5188 C.3     1  UNL1        0.1458
     34 C         140.9716  139.5384  160.8394 C.3     1  UNL1        0.0772
@<TRIPOS>BOND
     1    21    22    1
     2    22    23   am
     3    23    24    2
     4    23     1    1
     5     1     2   ar
     6     2    12    1
     7    12    13   ar
     8    13    14   ar
     9    14    15   ar
    10    15    16    1
    11    15    17   ar
    12    17    18   ar
    13    18    19    1
    14     2     3   ar
    15     3     4   ar
    16     4     5   ar
    17     5     6   ar
    18     6     7   ar
    19     7     8    1
    20     7     9   ar
    21     9    26    1
    22    26    27    1
    23    27    28    1
    24    28    29    1
    25    29    30    1
    26    30    31    1
    27    31    32    1
    28    32    33    1
    29    30    34    1
    30     9    10   ar
    31    10     1   ar
    32    18    12   ar
    33    10     4   ar
    34    34    27    1
    35    33    30    1
    36    22    25    1
    37    16    20    1
    38     8    11    1
@<TRIPOS>MOLECULE
*****
 34 38 0 0 0
SMALL
GASTEIGER

@<TRIPOS>ATOM
      1 C         141.1885  141.3210  164.1469 C.ar    1  UNL1        0.0906
      2 C         141.2368  140.0829  164.9924 C.ar    1  UNL1        0.1493
      3 O         142.6651  139.6315  165.0719 O.2     1  UNL1       -0.4534
      4 C         143.4994  140.5905  164.2755 C.ar    1  UNL1        0.1454
      5 C         144.9722  140.6478  163.9970 C.ar    1  UNL1        0.0406
      6 C         145.5323  141.7493  163.1468 C.ar    1  UNL1        0.0395
      7 C         144.6197  142.7935  162.5751 C.ar    1  UNL1        0.1311
      8 O         145.1800  143.8950  161.7249 O.3     1  UNL1       -0.5058
      9 C         143.1470  142.7361  162.8536 C.ar    1  UNL1        0.0308
     10 C         142.5868  141.6346  163.7038 C.ar    1  UNL1        0.0421
     11 H         146.1000  143.9308  161.5509 H       1  UNL1        0.2922
     12 C         140.0631  139.4139  165.6441 C.ar    1  UNL1        0.0310
     13 C         139.4660  139.9948  166.8914 C.ar    1  UNL1        0.0058
     14 C         138.2922  139.3258  167.5431 C.ar    1  UNL1        0.0367
     15 C         137.7156  138.0758  166.9474 C.ar    1  UNL1        0.1334
     16 O         136.5418  137.4067  167.5990 O.3     1  UNL1       -0.5055
     17 C         138.3127  137.4948  165.7001 C.ar    1  UNL1        0.0325
     18 C         139.4864  138.1639  165.0484 C.ar    1  UNL1       -0.0159
     19 C         140.0836  137.5828  163.8010 C.3     1  UNL1        0.0312
     20 H         136.1688  137.7696  168.3782 H       1  UNL1        0.2922
     21 C         138.0733  142.7182  162.1235 C.3     1  UNL1        0.1109
     22 N         139.3039  141.9319  162.4659 N.am    1  UNL1       -0.2991
     23 C         139.9578  142.1073  163.8045 C.2     1  UNL1        0.2490
     24 O         139.3810  143.0690  164.8006 O.2     1  UNL1       -0.2700
     25 H         139.6825  141.3006  161.8121 H       1  UNL1        0.1498
     26 C         142.2344  143.7803  162.2819 C.3     1  UNL1        0.1023
     27 N         141.7327  143.6487  160.8744 N.3     1  UNL1       -0.2687
     28 C         141.7687  142.4037  160.0384 C.3     1  UNL1        0.0726
     29 C         141.1652  142.7244  158.7031 C.3     1  UNL1        0.0235
     30 C         140.7562  144.1676  158.7139 C.3     1  UNL1        0.0707
     31 C         140.2738  145.5723  158.5044 C.3     1  UNL1        0.1458
     32 O         139.8422  145.2166  157.1125 O.3     1  UNL1       -0.3535
     33 C         140.3247  143.8118  157.3221 C.3     1  UNL1        0.1458
     34 C         141.1069  144.7388  160.0559 C.3     1  UNL1        0.0772
@<TRIPOS>BOND
     1    21    22    1
     2    22    23   am
     3    23    24    2
     4    23     1    1
     5     1     2   ar
     6     2    12    1
     7    12    13   ar
     8    13    14   ar
     9    14    15   ar
    10    15    16    1
    11    15    17   ar
    12    17    18   ar
    13    18    19    1
    14     2     3   ar
    15     3     4   ar
    16     4     5   ar
    17     5     6   ar
    18     6     7   ar
    19     7     8    1
    20     7     9   ar
    21     9    26    1
    22    26    27    1
    23    27    28    1
    24    28    29    1
    25    29    30    1
    26    30    31    1
    27    31    32    1
    28    32    33    1
    29    30    34    1
    30     9    10   ar
    31    10     1   ar
    32    18    12   ar
    33    10     4   ar
    34    34    27    1
    35    33    30    1
    36    22    25    1
    37    16    20    1
    38     8    11    1
@<TRIPOS>MOLECULE
*****
 34 38 0 0 0
SMALL
GASTEIGER

@<TRIPOS>ATOM
      1 C         139.8926  141.5407  165.2184 C.ar    1  UNL1        0.0906
      2 C         140.4009  140.8498  166.4489 C.ar    1  UNL1        0.1493
      3 O         140.1015  139.3861  166.3158 O.2     1  UNL1       -0.4534
      4 C         139.4081  139.1723  165.0029 C.ar    1  UNL1        0.1454
      5 C         138.8776  137.9371  164.3374 C.ar    1  UNL1        0.0406
      6 C         138.2181  138.0336  162.9937 C.ar    1  UNL1        0.0395
      7 C         138.0890  139.3652  162.3155 C.ar    1  UNL1        0.1311
      8 O         137.4294  139.4617  160.9717 O.3     1  UNL1       -0.5058
      9 C         138.6195  140.6004  162.9809 C.ar    1  UNL1        0.0308
     10 C         139.2790  140.5039  164.3247 C.ar    1  UNL1        0.0421
     11 H         137.0980  138.6901  160.5560 H       1  UNL1        0.2922
     12 C         141.0880  141.5072  167.6090 C.ar    1  UNL1        0.0310
     13 C         140.3045  141.8763  168.8336 C.ar    1  UNL1        0.0058
     14 C         140.9916  142.5338  169.9937 C.ar    1  UNL1        0.0367
     15 C         142.4622  142.8221  169.9290 C.ar    1  UNL1        0.1334
     16 O         143.1493  143.4796  171.0891 O.3     1  UNL1       -0.5055
     17 C         143.2456  142.4531  168.7043 C.ar    1  UNL1        0.0325
     18 C         142.5586  141.7956  167.5443 C.ar    1  UNL1       -0.0159
     19 C         143.3421  141.4266  166.3196 C.3     1  UNL1        0.0312
     20 H         142.6598  143.7101  171.8541 H       1  UNL1        0.2922
     21 C         141.2337  145.0230  163.8672 C.3     1  UNL1        0.1109
     22 N         141.1441  143.5534  164.1538 N.am    1  UNL1       -0.2991
     23 C         139.9821  143.0103  164.9317 C.2     1  UNL1        0.2490
     24 O         138.9098  143.9370  165.4229 O.2     1  UNL1       -0.2700
     25 H         141.8480  142.9452  163.8314 H       1  UNL1        0.1498
     26 C         138.4904  141.9321  162.3027 C.3     1  UNL1        0.1023
     27 N         139.6017  142.4421  161.4340 N.3     1  UNL1       -0.2687
     28 C         140.8075  141.6640  160.9972 C.3     1  UNL1        0.0726
     29 C         141.6534  142.5608  160.1427 C.3     1  UNL1        0.0235
     30 C         140.9704  143.8933  160.0513 C.3     1  UNL1        0.0707
     31 C         140.4697  145.2890  159.8252 C.3     1  UNL1        0.1458
     32 O         141.6742  145.5844  158.9814 O.3     1  UNL1       -0.3535
     33 C         142.1749  144.1886  159.2076 C.3     1  UNL1        0.1458
     34 C         139.7024  143.8199  160.8494 C.3     1  UNL1        0.0772
@<TRIPOS>BOND
     1    21    22    1
     2    22    23   am
     3    23    24    2
     4    23     1    1
     5     1     2   ar
     6     2    12    1
     7    12    13   ar
     8    13    14   ar
     9    14    15   ar
    10    15    16    1
    11    15    17   ar
    12    17    18   ar
    13    18    19    1
    14     2     3   ar
    15     3     4   ar
    16     4     5   ar
    17     5     6   ar
    18     6     7   ar
    19     7     8    1
    20     7     9   ar
    21     9    26    1
    22    26    27    1
    23    27    28    1
    24    28    29    1
    25    29    30    1
    26    30    31    1
    27    31    32    1
    28    32    33    1
    29    30    34    1
    30     9    10   ar
    31    10     1   ar
    32    18    12   ar
    33    10     4   ar
    34    34    27    1
    35    33    30    1
    36    22    25    1
    37    16    20    1
    38     8    11    1
@<TRIPOS>MOLECULE
*****
 34 38 0 0 0
SMALL
GASTEIGER

@<TRIPOS>ATOM
      1 C         141.3437  140.6089  165.1895 C.ar    1  UNL1        0.0906
      2 C         140.7628  140.1669  166.4999 C.ar    1  UNL1        0.1493
      3 O         139.7678  139.0792  166.2225 O.2     1  UNL1       -0.4534
      4 C         139.7337  138.8490  164.7407 C.ar    1  UNL1        0.1454
      5 C         138.9417  137.9007  163.8902 C.ar    1  UNL1        0.0406
      6 C         139.1236  137.8978  162.4013 C.ar    1  UNL1        0.0395
      7 C         140.0976  138.8432  161.7629 C.ar    1  UNL1        0.1311
      8 O         140.2795  138.8402  160.2739 O.3     1  UNL1       -0.5058
      9 C         140.8896  139.7915  162.6133 C.ar    1  UNL1        0.0308
     10 C         140.7077  139.7944  164.1022 C.ar    1  UNL1        0.0421
     11 H         139.7847  138.2478  159.7426 H       1  UNL1        0.2922
     12 C         141.1150  140.7161  167.8506 C.ar    1  UNL1        0.0310
     13 C         140.3507  141.8792  168.4099 C.ar    1  UNL1        0.0058
     14 C         140.7030  142.4285  169.7605 C.ar    1  UNL1        0.0367
     15 C         141.8195  141.8145  170.5519 C.ar    1  UNL1        0.1334
     16 O         142.1718  142.3638  171.9025 O.3     1  UNL1       -0.5055
     17 C         142.5839  140.6514  169.9926 C.ar    1  UNL1        0.0325
     18 C         142.2316  140.1022  168.6419 C.ar    1  UNL1       -0.0159
     19 C         142.9960  138.9390  168.0826 C.3     1  UNL1        0.0312
     20 H         141.6943  143.0903  172.2519 H       1  UNL1        0.2922
     21 C         144.8398  142.3696  164.5355 C.3     1  UNL1        0.1109
     22 N         143.8046  141.3008  164.7254 N.am    1  UNL1       -0.2991
     23 C         142.3788  141.6777  164.9996 C.2     1  UNL1        0.2490
     24 O         141.9883  143.1235  165.0840 O.2     1  UNL1       -0.2700
     25 H         144.0610  140.3518  164.6700 H       1  UNL1        0.1498
     26 C         141.8636  140.7369  161.9749 C.3     1  UNL1        0.1023
     27 N         141.5144  142.1884  161.8294 N.3     1  UNL1       -0.2687
     28 C         142.4474  143.2808  161.3978 C.3     1  UNL1        0.0726
     29 C         141.6805  144.5699  161.3916 C.3     1  UNL1        0.0235
     30 C         140.2735  144.2743  161.8195 C.3     1  UNL1        0.0707
     31 C         138.8293  144.2094  162.2193 C.3     1  UNL1        0.1458
     32 O         138.7045  145.6893  162.0087 O.3     1  UNL1       -0.3535
     33 C         140.1488  145.7541  161.6089 C.3     1  UNL1        0.1458
     34 C         140.1708  142.8024  162.0901 C.3     1  UNL1        0.0772
@<TRIPOS>BOND
     1    21    22    1
     2    22    23   am
     3    23    24    2
     4    23     1    1
     5     1     2   ar
     6     2    12    1
     7    12    13   ar
     8    13    14   ar
     9    14    15   ar
    10    15    16    1
    11    15    17   ar
    12    17    18   ar
    13    18    19    1
    14     2     3   ar
    15     3     4   ar
    16     4     5   ar
    17     5     6   ar
    18     6     7   ar
    19     7     8    1
    20     7     9   ar
    21     9    26    1
    22    26    27    1
    23    27    28    1
    24    28    29    1
    25    29    30    1
    26    30    31    1
    27    31    32    1
    28    32    33    1
    29    30    34    1
    30     9    10   ar
    31    10     1   ar
    32    18    12   ar
    33    10     4   ar
    34    34    27    1
    35    33    30    1
    36    22    25    1
    37    16    20    1
    38     8    11    1
@<TRIPOS>MOLECULE
*****
 34 38 0 0 0
SMALL
GASTEIGER

@<TRIPOS>ATOM
      1 C         141.5701  140.3433  165.2513 C.ar    1  UNL1        0.0906
      2 C         140.8803  140.0937  166.5596 C.ar    1  UNL1        0.1493
      3 O         139.7477  139.1419  166.3122 O.2     1  UNL1       -0.4534
      4 C         139.7375  138.8033  164.8510 C.ar    1  UNL1        0.1454
      5 C         138.8481  137.9148  164.0327 C.ar    1  UNL1        0.0406
      6 C         139.0851  137.7688  162.5588 C.ar    1  UNL1        0.0395
      7 C         140.2114  138.5114  161.9031 C.ar    1  UNL1        0.1311
      8 O         140.4483  138.3654  160.4291 O.3     1  UNL1       -0.5058
      9 C         141.1008  139.3999  162.7213 C.ar    1  UNL1        0.0308
     10 C         140.8638  139.5458  164.1952 C.ar    1  UNL1        0.0421
     11 H         139.8928  137.8103  159.9180 H       1  UNL1        0.2922
     12 C         141.2569  140.6909  167.8830 C.ar    1  UNL1        0.0310
     13 C         141.9997  139.8677  168.8932 C.ar    1  UNL1        0.0058
     14 C         142.3764  140.4650  170.2166 C.ar    1  UNL1        0.0367
     15 C         142.0103  141.8855  170.5298 C.ar    1  UNL1        0.1334
     16 O         142.3870  142.4828  171.8532 O.3     1  UNL1       -0.5055
     17 C         141.2675  142.7087  169.5196 C.ar    1  UNL1        0.0325
     18 C         140.8908  142.1114  168.1962 C.ar    1  UNL1       -0.0159
     19 C         140.1480  142.9347  167.1860 C.3     1  UNL1        0.0312
     20 H         142.8510  141.9685  172.4843 H       1  UNL1        0.2922
     21 C         143.7456  143.5744  164.4911 C.3     1  UNL1        0.1109
     22 N         142.5580  142.6836  164.7058 N.am    1  UNL1       -0.2991
     23 C         142.7577  141.2341  165.0366 C.2     1  UNL1        0.2490
     24 O         144.1449  140.6756  165.1526 O.2     1  UNL1       -0.2700
     25 H         141.6475  143.0502  164.6296 H       1  UNL1        0.1498
     26 C         142.2271  140.1425  162.0656 C.3     1  UNL1        0.1023
     27 N         142.0236  141.5530  161.5977 N.3     1  UNL1       -0.2687
     28 C         143.0764  142.4498  161.0167 C.3     1  UNL1        0.0726
     29 C         142.4350  143.7655  160.6885 C.3     1  UNL1        0.0235
     30 C         140.9858  143.6818  161.0666 C.3     1  UNL1        0.0707
     31 C         139.5227  143.8198  161.3668 C.3     1  UNL1        0.1458
     32 O         139.5484  145.2261  160.8455 O.3     1  UNL1       -0.3535
     33 C         141.0116  145.0880  160.5453 C.3     1  UNL1        0.1458
     34 C         140.7316  142.3144  161.6285 C.3     1  UNL1        0.0772
@<TRIPOS>BOND
     1    21    22    1
     2    22    23   am
     3    23    24    2
     4    23     1    1
     5     1     2   ar
     6     2    12    1
     7    12    13   ar
     8    13    14   ar
     9    14    15   ar
    10    15    16    1
    11    15    17   ar
    12    17    18   ar
    13    18    19    1
    14     2     3   ar
    15     3     4   ar
    16     4     5   ar
    17     5     6   ar
    18     6     7   ar
    19     7     8    1
    20     7     9   ar
    21     9    26    1
    22    26    27    1
    23    27    28    1
    24    28    29    1
    25    29    30    1
    26    30    31    1
    27    31    32    1
    28    32    33    1
    29    30    34    1
    30     9    10   ar
    31    10     1   ar
    32    18    12   ar
    33    10     4   ar
    34    34    27    1
    35    33    30    1
    36    22    25    1
    37    16    20    1
    38     8    11    1
@<TRIPOS>MOLECULE
*****
 34 38 0 0 0
SMALL
GASTEIGER

@<TRIPOS>ATOM
      1 C         142.2597  140.5173  165.0223 C.ar    1  UNL1        0.0906
      2 C         141.6751  139.5414  165.9999 C.ar    1  UNL1        0.1493
      3 O         141.3675  138.2729  165.2607 O.2     1  UNL1       -0.4534
      4 C         141.7620  138.4649  163.8263 C.ar    1  UNL1        0.1454
      5 C         141.6904  137.5559  162.6353 C.ar    1  UNL1        0.0406
      6 C         142.1702  138.0340  161.2970 C.ar    1  UNL1        0.0395
      7 C         142.7216  139.4212  161.1497 C.ar    1  UNL1        0.1311
      8 O         143.2014  139.8993  159.8113 O.3     1  UNL1       -0.5058
      9 C         142.7932  140.3302  162.3407 C.ar    1  UNL1        0.0308
     10 C         142.3134  139.8521  163.6790 C.ar    1  UNL1        0.0421
     11 H         143.1566  139.3315  159.0673 H       1  UNL1        0.2922
     12 C         141.4395  139.7901  167.4602 C.ar    1  UNL1        0.0310
     13 C         142.6007  139.8506  168.4077 C.ar    1  UNL1        0.0058
     14 C         142.3651  140.0994  169.8680 C.ar    1  UNL1        0.0367
     15 C         140.9682  140.2877  170.3809 C.ar    1  UNL1        0.1334
     16 O         140.7325  140.5365  171.8412 O.3     1  UNL1       -0.5055
     17 C         139.8069  140.2272  169.4335 C.ar    1  UNL1        0.0325
     18 C         140.0425  139.9784  167.9731 C.ar    1  UNL1       -0.0159
     19 C         138.8812  139.9179  167.0256 C.3     1  UNL1        0.0312
     20 H         141.4579  140.5743  172.4331 H       1  UNL1        0.2922
     21 C         144.6247  143.6459  165.6298 C.3     1  UNL1        0.1109
     22 N         144.1731  142.2498  165.3187 N.am    1  UNL1       -0.2991
     23 C         142.7113  141.9135  165.3334 C.2     1  UNL1        0.2490
     24 O         141.7013  142.9734  165.6593 O.2     1  UNL1       -0.2700
     25 H         144.8361  141.5541  165.1049 H       1  UNL1        0.1498
     26 C         143.3446  141.7174  162.1933 C.3     1  UNL1        0.1023
     27 N         142.5211  142.7861  161.5378 N.3     1  UNL1       -0.2687
     28 C         142.6625  143.2650  160.1233 C.3     1  UNL1        0.0726
     29 C         141.6404  144.3385  159.8930 C.3     1  UNL1        0.0235
     30 C         140.8673  144.5231  161.1652 C.3     1  UNL1        0.0707
     31 C         139.9750  144.8725  162.3191 C.3     1  UNL1        0.1458
     32 O         139.2825  145.8993  161.4727 O.3     1  UNL1       -0.3535
     33 C         140.1749  145.5497  160.3188 C.3     1  UNL1        0.1458
     34 C         141.4116  143.5637  162.1817 C.3     1  UNL1        0.0772
@<TRIPOS>BOND
     1    21    22    1
     2    22    23   am
     3    23    24    2
     4    23     1    1
     5     1     2   ar
     6     2    12    1
     7    12    13   ar
     8    13    14   ar
     9    14    15   ar
    10    15    16    1
    11    15    17   ar
    12    17    18   ar
    13    18    19    1
    14     2     3   ar
    15     3     4   ar
    16     4     5   ar
    17     5     6   ar
    18     6     7   ar
    19     7     8    1
    20     7     9   ar
    21     9    26    1
    22    26    27    1
    23    27    28    1
    24    28    29    1
    25    29    30    1
    26    30    31    1
    27    31    32    1
    28    32    33    1
    29    30    34    1
    30     9    10   ar
    31    10     1   ar
    32    18    12   ar
    33    10     4   ar
    34    34    27    1
    35    33    30    1
    36    22    25    1
    37    16    20    1
    38     8    11    1
