@<TRIPOS>MOLECULE
*****
 24 26 0 0 0
SMALL
GASTEIGER

@<TRIPOS>ATOM
      1 S         138.5812  139.8481  164.4616 S.3     1  UNL1       -0.1088
      2 C         138.7226  141.1362  163.7060 C.ar    1  UNL1        0.0261
      3 C         137.6173  142.1497  163.7379 C.ar    1  UNL1        0.0077
      4 C         137.7587  143.4377  162.9824 C.ar    1  UNL1        0.0202
      5 C         139.0055  143.7123  162.1949 C.ar    1  UNL1        0.0893
      6 N         139.4262  144.8836  161.3574 N.ar    1  UNL1       -0.2245
      7 C         140.7915  144.5940  160.8080 C.ar    1  UNL1        0.1567
      8 N         141.5931  145.4962  159.9171 N.pl3   1  UNL1       -0.3375
      9 S         141.2147  143.2437  161.3059 S.2     1  UNL1       -0.0520
     10 C         140.1109  142.6989  162.1630 C.ar    1  UNL1        0.0502
     11 C         139.9694  141.4108  162.9186 C.ar    1  UNL1        0.0142
     12 H         141.2278  146.3683  159.6429 H       1  UNL1        0.1442
     13 H         142.4844  145.2162  159.6066 H       1  UNL1        0.1442
     14 C         139.5755  139.4900  165.5261 C.3     1  UNL1        0.0884
     15 C         140.1535  142.2029  169.0695 C.ar    1  UNL1        0.0756
     16 C         139.5491  140.8430  169.2568 C.ar    1  UNL1        0.0061
     17 C         139.3564  139.9387  168.0758 C.ar    1  UNL1       -0.0032
     18 C         139.7682  140.3943  166.7073 C.ar    1  UNL1       -0.0110
     19 C         140.3726  141.7543  166.5199 C.ar    1  UNL1       -0.0032
     20 C         140.5653  142.6586  167.7010 C.ar    1  UNL1        0.0061
     21 C         140.3462  143.1073  170.2507 C.2     1  UNL1        0.3413
     22 O         139.2434  143.2767  171.2533 O.2     1  UNL1       -0.2449
     23 C         142.9274  143.0783  170.5447 C.3     1  UNL1        0.2560
     24 O         141.6416  143.8421  170.4292 O.3     1  UNL1       -0.4413
@<TRIPOS>BOND
     1    23    24    1
     2    24    21    1
     3    21    22    2
     4    21    15    1
     5    15    16   ar
     6    16    17   ar
     7    17    18   ar
     8    18    14    1
     9    14     1    1
    10     1     2    1
    11     2     3   ar
    12     3     4   ar
    13     4     5   ar
    14     5     6   ar
    15     6     7   ar
    16     7     8    1
    17     7     9   ar
    18     9    10   ar
    19    10    11   ar
    20    18    19   ar
    21    19    20   ar
    22    20    15   ar
    23    11     2   ar
    24    10     5   ar
    25     8    12    1
    26     8    13    1
@<TRIPOS>MOLECULE
*****
 24 26 0 0 0
SMALL
GASTEIGER

@<TRIPOS>ATOM
      1 S         143.5744  139.6292  164.5171 S.3     1  UNL1       -0.1088
      2 C         143.2782  141.0949  164.3979 C.ar    1  UNL1        0.0261
      3 C         144.0879  142.0893  165.1761 C.ar    1  UNL1        0.0077
      4 C         143.7917  143.5549  165.0568 C.ar    1  UNL1        0.0202
      5 C         142.6859  144.0261  164.1595 C.ar    1  UNL1        0.0893
      6 N         142.1663  145.3970  163.8418 N.ar    1  UNL1       -0.2245
      7 C         141.0355  145.2497  162.8674 C.ar    1  UNL1        0.1567
      8 N         140.2261  146.3679  162.2804 N.pl3   1  UNL1       -0.3375
      9 S         140.8563  143.7878  162.5828 S.2     1  UNL1       -0.0520
     10 C         141.8763  143.0317  163.3814 C.ar    1  UNL1        0.0502
     11 C         142.1724  141.5661  163.5006 C.ar    1  UNL1        0.0142
     12 H         140.4206  147.3001  162.5301 H       1  UNL1        0.1442
     13 H         139.5002  146.1696  161.6456 H       1  UNL1        0.1442
     14 C         142.5933  138.7184  165.1939 C.3     1  UNL1        0.0884
     15 C         140.2118  140.1945  168.7151 C.ar    1  UNL1        0.0756
     16 C         141.6648  139.8604  168.8795 C.ar    1  UNL1        0.0061
     17 C         142.4587  139.3684  167.7057 C.ar    1  UNL1       -0.0032
     18 C         141.7995  139.2105  166.3677 C.ar    1  UNL1       -0.0110
     19 C         140.3464  139.5446  166.2033 C.ar    1  UNL1       -0.0032
     20 C         139.5526  140.0366  167.3770 C.ar    1  UNL1        0.0061
     21 C         139.4179  140.6865  169.8889 C.2     1  UNL1        0.3413
     22 O         138.2921  139.8581  170.4333 O.2     1  UNL1       -0.2449
     23 C         140.2891  143.1248  169.6760 C.3     1  UNL1        0.2560
     24 O         139.7498  142.0070  170.5183 O.3     1  UNL1       -0.4413
@<TRIPOS>BOND
     1    23    24    1
     2    24    21    1
     3    21    22    2
     4    21    15    1
     5    15    16   ar
     6    16    17   ar
     7    17    18   ar
     8    18    14    1
     9    14     1    1
    10     1     2    1
    11     2     3   ar
    12     3     4   ar
    13     4     5   ar
    14     5     6   ar
    15     6     7   ar
    16     7     8    1
    17     7     9   ar
    18     9    10   ar
    19    10    11   ar
    20    18    19   ar
    21    19    20   ar
    22    20    15   ar
    23    11     2   ar
    24    10     5   ar
    25     8    12    1
    26     8    13    1
@<TRIPOS>MOLECULE
*****
 24 26 0 0 0
SMALL
GASTEIGER

@<TRIPOS>ATOM
      1 S         139.6455  138.6923  162.7035 S.3     1  UNL1       -0.1088
      2 C         139.2345  140.1349  162.6866 C.ar    1  UNL1        0.0261
      3 C         137.7983  140.5081  162.9050 C.ar    1  UNL1        0.0077
      4 C         137.3874  141.9506  162.8881 C.ar    1  UNL1        0.0202
      5 C         138.4128  143.0198  162.6528 C.ar    1  UNL1        0.0893
      6 N         138.3063  144.5144  162.5819 N.ar    1  UNL1       -0.2245
      7 C         139.6768  145.0648  162.3196 C.ar    1  UNL1        0.1567
      8 N         140.0316  146.5150  162.1740 N.pl3   1  UNL1       -0.3375
      9 S         140.6303  143.9104  162.2285 S.2     1  UNL1       -0.0520
     10 C         139.8491  142.6466  162.4344 C.ar    1  UNL1        0.0502
     11 C         140.2599  141.2041  162.4513 C.ar    1  UNL1        0.0142
     12 H         139.3317  147.2031  162.2504 H       1  UNL1        0.1442
     13 H         140.9645  146.7787  162.0021 H       1  UNL1        0.1442
     14 C         139.4234  137.8635  163.9338 C.3     1  UNL1        0.0884
     15 C         139.3630  139.8215  167.9850 C.ar    1  UNL1        0.0756
     16 C         140.6024  139.8802  167.1421 C.ar    1  UNL1        0.0061
     17 C         140.6225  139.2275  165.7917 C.ar    1  UNL1       -0.0032
     18 C         139.4033  138.5162  165.2843 C.ar    1  UNL1       -0.0110
     19 C         138.1639  138.4576  166.1272 C.ar    1  UNL1       -0.0032
     20 C         138.1438  139.1102  167.4776 C.ar    1  UNL1        0.0061
     21 C         139.3429  140.4742  169.3355 C.2     1  UNL1        0.3413
     22 O         138.3937  139.9871  170.3899 O.2     1  UNL1       -0.2449
     23 C         140.8072  141.8042  171.0198 C.3     1  UNL1        0.2560
     24 O         140.2720  141.6140  169.6315 O.3     1  UNL1       -0.4413
@<TRIPOS>BOND
     1    23    24    1
     2    24    21    1
     3    21    22    2
     4    21    15    1
     5    15    16   ar
     6    16    17   ar
     7    17    18   ar
     8    18    14    1
     9    14     1    1
    10     1     2    1
    11     2     3   ar
    12     3     4   ar
    13     4     5   ar
    14     5     6   ar
    15     6     7   ar
    16     7     8    1
    17     7     9   ar
    18     9    10   ar
    19    10    11   ar
    20    18    19   ar
    21    19    20   ar
    22    20    15   ar
    23    11     2   ar
    24    10     5   ar
    25     8    12    1
    26     8    13    1
@<TRIPOS>MOLECULE
*****
 24 26 0 0 0
SMALL
GASTEIGER

@<TRIPOS>ATOM
      1 S         140.0557  138.4986  165.2650 S.3     1  UNL1       -0.1088
      2 C         141.3829  139.0569  164.8441 C.ar    1  UNL1        0.0261
      3 C         142.6351  138.6265  165.5487 C.ar    1  UNL1        0.0077
      4 C         143.9622  139.1848  165.1277 C.ar    1  UNL1        0.0202
      5 C         144.0369  140.1734  164.0021 C.ar    1  UNL1        0.0893
      6 N         145.1937  140.8898  163.3706 N.ar    1  UNL1       -0.2245
      7 C         144.6563  141.7630  162.2757 C.ar    1  UNL1        0.1567
      8 N         145.4657  142.6561  161.3827 N.pl3   1  UNL1       -0.3375
      9 S         143.1674  141.5862  162.2305 S.2     1  UNL1       -0.0520
     10 C         142.7847  140.6038  163.2975 C.ar    1  UNL1        0.0502
     11 C         141.4576  140.0455  163.7184 C.ar    1  UNL1        0.0142
     12 H         146.4431  142.7046  161.4902 H       1  UNL1        0.1442
     13 H         145.0194  143.1938  160.6892 H       1  UNL1        0.1442
     14 C         139.0579  139.3782  165.9582 C.3     1  UNL1        0.0884
     15 C         140.4549  142.4712  168.9132 C.ar    1  UNL1        0.0756
     16 C         139.9675  141.1377  169.3972 C.ar    1  UNL1        0.0061
     17 C         139.5018  140.1067  168.4123 C.ar    1  UNL1       -0.0032
     18 C         139.5236  140.4092  166.9433 C.ar    1  UNL1       -0.0110
     19 C         140.0111  141.7427  166.4593 C.ar    1  UNL1       -0.0032
     20 C         140.4767  142.7736  167.4442 C.ar    1  UNL1        0.0061
     21 C         140.9206  143.5022  169.8983 C.2     1  UNL1        0.3413
     22 O         140.0409  144.6698  170.2341 O.2     1  UNL1       -0.2449
     23 C         143.3229  142.5129  169.9104 C.3     1  UNL1        0.2560
     24 O         142.2659  143.3655  170.5475 O.3     1  UNL1       -0.4413
@<TRIPOS>BOND
     1    23    24    1
     2    24    21    1
     3    21    22    2
     4    21    15    1
     5    15    16   ar
     6    16    17   ar
     7    17    18   ar
     8    18    14    1
     9    14     1    1
    10     1     2    1
    11     2     3   ar
    12     3     4   ar
    13     4     5   ar
    14     5     6   ar
    15     6     7   ar
    16     7     8    1
    17     7     9   ar
    18     9    10   ar
    19    10    11   ar
    20    18    19   ar
    21    19    20   ar
    22    20    15   ar
    23    11     2   ar
    24    10     5   ar
    25     8    12    1
    26     8    13    1
@<TRIPOS>MOLECULE
*****
 24 26 0 0 0
SMALL
GASTEIGER

@<TRIPOS>ATOM
      1 S         143.1017  138.9051  166.3509 S.3     1  UNL1       -0.1088
      2 C         142.4081  140.0782  166.9776 C.ar    1  UNL1        0.0261
      3 C         142.4058  141.4073  166.2824 C.ar    1  UNL1        0.0077
      4 C         141.7122  142.5804  166.9091 C.ar    1  UNL1        0.0202
      5 C         141.0210  142.4243  168.2312 C.ar    1  UNL1        0.0893
      6 N         140.2598  143.3936  169.0864 N.ar    1  UNL1       -0.2245
      7 C         139.7917  142.6634  170.3102 C.ar    1  UNL1        0.1567
      8 N         138.9921  143.2506  171.4354 N.pl3   1  UNL1       -0.3375
      9 S         140.2636  141.2430  170.2113 S.2     1  UNL1       -0.0520
     10 C         141.0233  141.0952  168.9264 C.ar    1  UNL1        0.0502
     11 C         141.7169  139.9222  168.2997 C.ar    1  UNL1        0.0142
     12 H         138.7284  144.1988  171.4094 H       1  UNL1        0.1442
     13 H         138.7311  142.6878  172.1998 H       1  UNL1        0.1442
     14 C         142.3668  138.0312  165.3783 C.3     1  UNL1        0.0884
     15 C         138.9086  139.6939  163.0275 C.ar    1  UNL1        0.0756
     16 C         140.3161  139.9951  162.6056 C.ar    1  UNL1        0.0061
     17 C         141.4688  139.4409  163.3892 C.ar    1  UNL1       -0.0032
     18 C         141.2140  138.5854  164.5947 C.ar    1  UNL1       -0.0110
     19 C         139.8064  138.2842  165.0166 C.ar    1  UNL1       -0.0032
     20 C         138.6537  138.8384  164.2330 C.ar    1  UNL1        0.0061
     21 C         137.7558  140.2481  162.2439 C.2     1  UNL1        0.3413
     22 O         137.3319  139.5884  160.9652 O.2     1  UNL1       -0.2449
     23 C         137.6460  142.3300  163.7941 C.3     1  UNL1        0.2560
     24 O         137.0270  141.4621  162.7389 O.3     1  UNL1       -0.4413
@<TRIPOS>BOND
     1    23    24    1
     2    24    21    1
     3    21    22    2
     4    21    15    1
     5    15    16   ar
     6    16    17   ar
     7    17    18   ar
     8    18    14    1
     9    14     1    1
    10     1     2    1
    11     2     3   ar
    12     3     4   ar
    13     4     5   ar
    14     5     6   ar
    15     6     7   ar
    16     7     8    1
    17     7     9   ar
    18     9    10   ar
    19    10    11   ar
    20    18    19   ar
    21    19    20   ar
    22    20    15   ar
    23    11     2   ar
    24    10     5   ar
    25     8    12    1
    26     8    13    1
@<TRIPOS>MOLECULE
*****
 24 26 0 0 0
SMALL
GASTEIGER

@<TRIPOS>ATOM
      1 S         139.5912  138.5504  162.0560 S.3     1  UNL1       -0.1088
      2 C         139.1776  139.9844  162.2078 C.ar    1  UNL1        0.0261
      3 C         137.7828  140.3204  162.6452 C.ar    1  UNL1        0.0077
      4 C         137.3693  141.7542  162.7970 C.ar    1  UNL1        0.0202
      5 C         138.3507  142.8520  162.5114 C.ar    1  UNL1        0.0893
      6 N         138.2314  144.3461  162.5731 N.ar    1  UNL1       -0.2245
      7 C         139.5526  144.9334  162.1738 C.ar    1  UNL1        0.1567
      8 N         139.8806  146.3951  162.0965 N.pl3   1  UNL1       -0.3375
      9 S         140.4884  143.8024  161.8654 S.2     1  UNL1       -0.0520
     10 C         139.7456  142.5160  162.0740 C.ar    1  UNL1        0.0502
     11 C         140.1591  141.0822  161.9222 C.ar    1  UNL1        0.0142
     12 H         139.1953  147.0658  162.3198 H       1  UNL1        0.1442
     13 H         140.7811  146.6838  161.8226 H       1  UNL1        0.1442
     14 C         139.8058  137.6990  163.2721 C.3     1  UNL1        0.0884
     15 C         141.8986  139.4047  166.8723 C.ar    1  UNL1        0.0756
     16 C         140.4218  139.6028  166.6994 C.ar    1  UNL1        0.0061
     17 C         139.7242  139.0343  165.4994 C.ar    1  UNL1       -0.0032
     18 C         140.5034  138.2676  164.4722 C.ar    1  UNL1       -0.0110
     19 C         141.9802  138.0695  164.6451 C.ar    1  UNL1       -0.0032
     20 C         142.6778  138.6381  165.8451 C.ar    1  UNL1        0.0061
     21 C         142.5962  139.9733  168.0723 C.2     1  UNL1        0.3413
     22 O         142.9614  139.0801  169.2207 O.2     1  UNL1       -0.2449
     23 C         141.9807  142.3971  168.7769 C.3     1  UNL1        0.2560
     24 O         142.9285  141.4351  168.1240 O.3     1  UNL1       -0.4413
@<TRIPOS>BOND
     1    23    24    1
     2    24    21    1
     3    21    22    2
     4    21    15    1
     5    15    16   ar
     6    16    17   ar
     7    17    18   ar
     8    18    14    1
     9    14     1    1
    10     1     2    1
    11     2     3   ar
    12     3     4   ar
    13     4     5   ar
    14     5     6   ar
    15     6     7   ar
    16     7     8    1
    17     7     9   ar
    18     9    10   ar
    19    10    11   ar
    20    18    19   ar
    21    19    20   ar
    22    20    15   ar
    23    11     2   ar
    24    10     5   ar
    25     8    12    1
    26     8    13    1
@<TRIPOS>MOLECULE
*****
 24 26 0 0 0
SMALL
GASTEIGER

@<TRIPOS>ATOM
      1 S         143.2688  138.6874  166.3889 S.3     1  UNL1       -0.1088
      2 C         142.8281  138.3866  164.9870 C.ar    1  UNL1        0.0261
      3 C         141.5460  137.6460  164.7465 C.ar    1  UNL1        0.0077
      4 C         141.1053  137.3452  163.3446 C.ar    1  UNL1        0.0202
      5 C         141.9467  137.7850  162.1833 C.ar    1  UNL1        0.0893
      6 N         141.7704  137.6324  160.7014 N.ar    1  UNL1       -0.2245
      7 C         142.9436  138.2787  160.0262 C.ar    1  UNL1        0.1567
      8 N         143.1749  138.3590  158.5462 N.pl3   1  UNL1       -0.3375
      9 S         143.8449  138.8307  161.0906 S.2     1  UNL1       -0.0520
     10 C         143.2287  138.5256  162.4238 C.ar    1  UNL1        0.0502
     11 C         143.6694  138.8263  163.8256 C.ar    1  UNL1        0.0142
     12 H         142.5221  137.9644  157.9239 H       1  UNL1        0.1442
     13 H         143.9796  138.8062  158.1973 H       1  UNL1        0.1442
     14 C         142.6404  139.8195  167.1461 C.3     1  UNL1        0.0884
     15 C         141.0703  143.4093  164.9329 C.ar    1  UNL1        0.0756
     16 C         142.5493  143.1894  165.0519 C.ar    1  UNL1        0.0061
     17 C         143.0727  141.9928  165.7896 C.ar    1  UNL1       -0.0032
     18 C         142.1170  141.0162  166.4083 C.ar    1  UNL1       -0.0110
     19 C         140.6380  141.2360  166.2892 C.ar    1  UNL1       -0.0032
     20 C         140.1147  142.4326  165.5515 C.ar    1  UNL1        0.0061
     21 C         140.5470  144.6059  164.1951 C.2     1  UNL1        0.3413
     22 O         141.4856  145.4703  163.4065 O.2     1  UNL1       -0.2449
     23 C         138.1797  144.5111  163.1289 C.3     1  UNL1        0.2560
     24 O         139.0851  144.9381  164.2459 O.3     1  UNL1       -0.4413
@<TRIPOS>BOND
     1    23    24    1
     2    24    21    1
     3    21    22    2
     4    21    15    1
     5    15    16   ar
     6    16    17   ar
     7    17    18   ar
     8    18    14    1
     9    14     1    1
    10     1     2    1
    11     2     3   ar
    12     3     4   ar
    13     4     5   ar
    14     5     6   ar
    15     6     7   ar
    16     7     8    1
    17     7     9   ar
    18     9    10   ar
    19    10    11   ar
    20    18    19   ar
    21    19    20   ar
    22    20    15   ar
    23    11     2   ar
    24    10     5   ar
    25     8    12    1
    26     8    13    1
@<TRIPOS>MOLECULE
*****
 24 26 0 0 0
SMALL
GASTEIGER

@<TRIPOS>ATOM
      1 S         138.1361  139.1802  165.8289 S.3     1  UNL1       -0.1088
      2 C         138.6129  140.5463  165.4330 C.ar    1  UNL1        0.0261
      3 C         139.6524  141.2460  166.2575 C.ar    1  UNL1        0.0077
      4 C         140.1291  142.6119  165.8616 C.ar    1  UNL1        0.0202
      5 C         139.5664  143.2782  164.6412 C.ar    1  UNL1        0.0893
      6 N         139.8404  144.6104  164.0085 N.ar    1  UNL1       -0.2245
      7 C         138.9702  144.7340  162.7930 C.ar    1  UNL1        0.1567
      8 N         138.9205  145.9074  161.8598 N.pl3   1  UNL1       -0.3375
      9 S         138.1584  143.4782  162.6745 S.2     1  UNL1       -0.0520
     10 C         138.5269  142.5785  163.8167 C.ar    1  UNL1        0.0502
     11 C         138.0501  141.2125  164.2127 C.ar    1  UNL1        0.0142
     12 H         139.4950  146.6902  162.0222 H       1  UNL1        0.1442
     13 H         138.3133  145.8947  161.0849 H       1  UNL1        0.1442
     14 C         139.0085  137.9833  165.5915 C.3     1  UNL1        0.0884
     15 C         142.1291  138.0810  162.3507 C.ar    1  UNL1        0.0756
     16 C         142.5191  138.3416  163.7755 C.ar    1  UNL1        0.0061
     17 C         141.4789  138.3091  164.8557 C.ar    1  UNL1       -0.0032
     18 C         140.0488  138.0159  164.5112 C.ar    1  UNL1       -0.0110
     19 C         139.6588  137.7553  163.0864 C.ar    1  UNL1       -0.0032
     20 C         140.6989  137.7879  162.0062 C.ar    1  UNL1        0.0061
     21 C         143.1693  138.1136  161.2704 C.2     1  UNL1        0.3413
     22 O         144.3650  139.0089  161.4074 O.2     1  UNL1       -0.2449
     23 C         142.6490  137.8702  158.7367 C.3     1  UNL1        0.2560
     24 O         143.0138  137.2509  160.0533 O.3     1  UNL1       -0.4413
@<TRIPOS>BOND
     1    23    24    1
     2    24    21    1
     3    21    22    2
     4    21    15    1
     5    15    16   ar
     6    16    17   ar
     7    17    18   ar
     8    18    14    1
     9    14     1    1
    10     1     2    1
    11     2     3   ar
    12     3     4   ar
    13     4     5   ar
    14     5     6   ar
    15     6     7   ar
    16     7     8    1
    17     7     9   ar
    18     9    10   ar
    19    10    11   ar
    20    18    19   ar
    21    19    20   ar
    22    20    15   ar
    23    11     2   ar
    24    10     5   ar
    25     8    12    1
    26     8    13    1
@<TRIPOS>MOLECULE
*****
 24 26 0 0 0
SMALL
GASTEIGER

@<TRIPOS>ATOM
      1 S         143.7040  140.7609  165.0646 S.3     1  UNL1       -0.1088
      2 C         142.6301  140.7951  166.1114 C.ar    1  UNL1        0.0261
      3 C         141.5303  139.7754  166.0911 C.ar    1  UNL1        0.0077
      4 C         140.4564  139.8097  167.1378 C.ar    1  UNL1        0.0202
      5 C         140.4825  140.8636  168.2048 C.ar    1  UNL1        0.0893
      6 N         139.5672  141.1460  169.3592 N.ar    1  UNL1       -0.2245
      7 C         140.1014  142.3402  170.0929 C.ar    1  UNL1        0.1567
      8 N         139.4964  142.9686  171.3134 N.pl3   1  UNL1       -0.3375
      9 S         141.3468  142.7959  169.3920 S.2     1  UNL1       -0.0520
     10 C         141.5823  141.8833  168.2251 C.ar    1  UNL1        0.0502
     11 C         142.6561  141.8491  167.1784 C.ar    1  UNL1        0.0142
     12 H         138.6727  142.5951  171.7023 H       1  UNL1        0.1442
     13 H         139.9231  143.7543  171.7253 H       1  UNL1        0.1442
     14 C         143.9442  141.9607  164.1970 C.3     1  UNL1        0.0884
     15 C         140.4621  144.3770  162.6847 C.ar    1  UNL1        0.0756
     16 C         141.3380  144.9235  163.7729 C.ar    1  UNL1        0.0061
     17 C         142.4986  144.1181  164.2770 C.ar    1  UNL1       -0.0032
     18 C         142.7834  142.7662  163.6929 C.ar    1  UNL1       -0.0110
     19 C         141.9076  142.2197  162.6047 C.ar    1  UNL1       -0.0032
     20 C         140.7469  143.0251  162.1006 C.ar    1  UNL1        0.0061
     21 C         139.3014  145.1824  162.1806 C.2     1  UNL1        0.3413
     22 O         139.5350  146.3259  161.2383 O.2     1  UNL1       -0.2449
     23 C         137.6895  143.9384  163.7942 C.3     1  UNL1        0.2560
     24 O         137.9073  144.8444  162.6187 O.3     1  UNL1       -0.4413
@<TRIPOS>BOND
     1    23    24    1
     2    24    21    1
     3    21    22    2
     4    21    15    1
     5    15    16   ar
     6    16    17   ar
     7    17    18   ar
     8    18    14    1
     9    14     1    1
    10     1     2    1
    11     2     3   ar
    12     3     4   ar
    13     4     5   ar
    14     5     6   ar
    15     6     7   ar
    16     7     8    1
    17     7     9   ar
    18     9    10   ar
    19    10    11   ar
    20    18    19   ar
    21    19    20   ar
    22    20    15   ar
    23    11     2   ar
    24    10     5   ar
    25     8    12    1
    26     8    13    1
