@<TRIPOS>MOLECULE
*****
 23 23 0 0 0
SMALL
GASTEIGER

@<TRIPOS>ATOM
      1 N         141.3813  141.5171  169.9788 N.4     1  UNL1        0.2970
      2 C         142.4773  140.5644  170.3547 C.3     1  UNL1        0.1086
      3 C         142.3223  139.0976  170.0818 C.3     1  UNL1        0.0671
      4 C         140.2853  142.4697  169.6030 C.3     1  UNL1        0.1086
      5 C         140.4388  143.9361  169.8789 C.3     1  UNL1        0.0671
      6 C         142.4045  142.5579  169.6331 C.3     1  UNL1        0.1084
      7 C         143.4558  142.2636  168.6043 C.3     1  UNL1        0.0610
      8 C         143.1365  142.4012  167.1452 C.3     1  UNL1        0.0061
      9 C         142.3788  141.3171  166.4377 C.3     1  UNL1        0.0002
     10 C         142.7601  139.8806  166.6403 C.3     1  UNL1        0.0000
     11 C         142.0377  139.3447  164.2030 C.3     1  UNL1        0.0000
     12 C         142.5781  138.8921  165.5270 C.3     1  UNL1        0.0000
     13 C         140.3580  140.4762  170.3245 C.3     1  UNL1        0.1084
     14 C         139.1835  140.2494  169.4193 C.3     1  UNL1        0.0614
     15 C         139.4041  139.8527  167.9897 C.3     1  UNL1        0.0108
     16 C         138.3212  139.1426  167.2327 C.3     1  UNL1        0.0266
     17 C         138.4298  138.9778  165.7457 C.ar    1  UNL1       -0.0221
     18 C         138.1522  140.1408  164.8400 C.ar    1  UNL1       -0.0034
     19 C         138.2608  139.9760  163.3531 C.ar    1  UNL1        0.0111
     20 C         138.6470  138.6483  162.7718 C.ar    1  UNL1        0.0577
     21 CL        138.7555  138.4835  161.2848 Cl      1  UNL1       -0.0822
     22 C         138.9246  137.4853  163.6775 C.ar    1  UNL1        0.0111
     23 C         138.8160  137.6501  165.1645 C.ar    1  UNL1       -0.0034
@<TRIPOS>UNITY_ATOM_ATTR
1 1
charge 1
@<TRIPOS>BOND
     1    11    12    1
     2    12    10    1
     3    10     9    1
     4     9     8    1
     5     8     7    1
     6     7     6    1
     7     6     1    1
     8     1     2    1
     9     2     3    1
    10     1     4    1
    11     4     5    1
    12     1    13    1
    13    13    14    1
    14    14    15    1
    15    15    16    1
    16    16    17    1
    17    17    18   ar
    18    18    19   ar
    19    19    20   ar
    20    20    21    1
    21    20    22   ar
    22    22    23   ar
    23    23    17   ar
@<TRIPOS>MOLECULE
*****
 23 23 0 0 0
SMALL
GASTEIGER

@<TRIPOS>ATOM
      1 N         140.9867  141.1952  165.4464 N.4     1  UNL1        0.2970
      2 C         140.1265  139.9761  165.2919 C.3     1  UNL1        0.1086
      3 C         138.7676  139.9317  165.9255 C.3     1  UNL1        0.0671
      4 C         141.8468  142.4143  165.6010 C.3     1  UNL1        0.1086
      5 C         143.3398  142.2937  165.5216 C.3     1  UNL1        0.0671
      6 C         139.7597  142.0366  165.6380 C.3     1  UNL1        0.1084
      7 C         139.8935  143.4872  165.9958 C.3     1  UNL1        0.0610
      8 C         138.9435  144.4932  165.4165 C.3     1  UNL1        0.0061
      9 C         138.8963  144.7129  163.9335 C.3     1  UNL1        0.0002
     10 C         137.7385  144.1922  163.1346 C.3     1  UNL1        0.0000
     11 C         137.2814  141.6370  163.0244 C.3     1  UNL1        0.0000
     12 C         137.8536  142.8819  162.4137 C.3     1  UNL1        0.0000
     13 C         142.2136  140.3538  165.2549 C.3     1  UNL1        0.1084
     14 C         142.2957  138.9936  165.8822 C.3     1  UNL1        0.0614
     15 C         143.2108  138.7591  167.0474 C.3     1  UNL1        0.0108
     16 C         142.7164  138.9815  168.4459 C.3     1  UNL1        0.0266
     17 C         142.1281  140.3063  168.8317 C.ar    1  UNL1       -0.0221
     18 C         140.6442  140.4483  168.9977 C.ar    1  UNL1       -0.0034
     19 C         140.0560  141.7731  169.3835 C.ar    1  UNL1        0.0111
     20 C         140.9517  142.9560  169.6033 C.ar    1  UNL1        0.0577
     21 CL        140.3635  144.2808  169.9891 Cl      1  UNL1       -0.0822
     22 C         142.4357  142.8140  169.4374 C.ar    1  UNL1        0.0111
     23 C         143.0239  141.4892  169.0516 C.ar    1  UNL1       -0.0034
@<TRIPOS>UNITY_ATOM_ATTR
1 1
charge 1
@<TRIPOS>BOND
     1    11    12    1
     2    12    10    1
     3    10     9    1
     4     9     8    1
     5     8     7    1
     6     7     6    1
     7     6     1    1
     8     1     2    1
     9     2     3    1
    10     1     4    1
    11     4     5    1
    12     1    13    1
    13    13    14    1
    14    14    15    1
    15    15    16    1
    16    16    17    1
    17    17    18   ar
    18    18    19   ar
    19    19    20   ar
    20    20    21    1
    21    20    22   ar
    22    22    23   ar
    23    23    17   ar
@<TRIPOS>MOLECULE
*****
 23 23 0 0 0
SMALL
GASTEIGER

@<TRIPOS>ATOM
      1 N         138.6460  139.0881  164.3561 N.4     1  UNL1        0.2970
      2 C         138.3967  139.5709  165.7543 C.3     1  UNL1        0.1086
      3 C         137.9208  138.6121  166.8051 C.3     1  UNL1        0.0671
      4 C         138.8953  138.6054  162.9580 C.3     1  UNL1        0.1086
      5 C         137.8571  138.8149  161.8959 C.3     1  UNL1        0.0671
      6 C         137.9861  140.3208  163.8129 C.3     1  UNL1        0.1084
      7 C         138.0002  141.5920  164.6092 C.3     1  UNL1        0.0610
      8 C         137.7354  142.9040  163.9322 C.3     1  UNL1        0.0061
      9 C         137.8476  144.1837  164.7067 C.3     1  UNL1        0.0002
     10 C         139.1882  144.8279  164.9007 C.3     1  UNL1        0.0000
     11 C         141.6185  144.6822  163.9938 C.3     1  UNL1        0.0000
     12 C         140.1546  144.9078  163.7564 C.3     1  UNL1        0.0000
     13 C         139.3059  137.8555  164.8994 C.3     1  UNL1        0.1084
     14 C         140.7252  137.5400  164.5303 C.3     1  UNL1        0.0614
     15 C         141.8086  138.5444  164.7897 C.3     1  UNL1        0.0108
     16 C         142.2794  138.7945  166.1917 C.3     1  UNL1        0.0266
     17 C         141.7851  139.9929  166.9463 C.ar    1  UNL1       -0.0221
     18 C         141.6132  139.9235  168.4348 C.ar    1  UNL1       -0.0034
     19 C         141.1189  141.1219  169.1894 C.ar    1  UNL1        0.0111
     20 C         140.7965  142.3897  168.4556 C.ar    1  UNL1        0.0577
     21 CL        140.3022  143.5882  169.2102 Cl      1  UNL1       -0.0822
     22 C         140.9684  142.4592  166.9671 C.ar    1  UNL1        0.0111
     23 C         141.4627  141.2607  166.2125 C.ar    1  UNL1       -0.0034
@<TRIPOS>UNITY_ATOM_ATTR
1 1
charge 1
@<TRIPOS>BOND
     1    11    12    1
     2    12    10    1
     3    10     9    1
     4     9     8    1
     5     8     7    1
     6     7     6    1
     7     6     1    1
     8     1     2    1
     9     2     3    1
    10     1     4    1
    11     4     5    1
    12     1    13    1
    13    13    14    1
    14    14    15    1
    15    15    16    1
    16    16    17    1
    17    17    18   ar
    18    18    19   ar
    19    19    20   ar
    20    20    21    1
    21    20    22   ar
    22    22    23   ar
    23    23    17   ar
@<TRIPOS>MOLECULE
*****
 23 23 0 0 0
SMALL
GASTEIGER

@<TRIPOS>ATOM
      1 N         142.5309  139.0003  164.5643 N.4     1  UNL1        0.2970
      2 C         143.2592  138.6040  165.8143 C.3     1  UNL1        0.1086
      3 C         142.7995  139.1197  167.1457 C.3     1  UNL1        0.0671
      4 C         141.8025  139.3966  163.3144 C.3     1  UNL1        0.1086
      5 C         141.6726  140.8457  162.9495 C.3     1  UNL1        0.0671
      6 C         143.3703  140.2397  164.4682 C.3     1  UNL1        0.1084
      7 C         144.8517  140.1280  164.2611 C.3     1  UNL1        0.0610
      8 C         145.6442  141.3327  163.8479 C.3     1  UNL1        0.0061
      9 C         145.3044  142.0544  162.5777 C.3     1  UNL1        0.0002
     10 C         144.4899  143.3131  162.6250 C.3     1  UNL1        0.0000
     11 C         142.6404  144.4192  164.0762 C.3     1  UNL1        0.0000
     12 C         144.0243  143.8560  163.9435 C.3     1  UNL1        0.0000
     13 C         141.6915  137.7609  164.6605 C.3     1  UNL1        0.1084
     14 C         140.2420  137.8051  164.2768 C.3     1  UNL1        0.0614
     15 C         139.1912  137.9738  165.3338 C.3     1  UNL1        0.0108
     16 C         138.6018  139.3280  165.5960 C.3     1  UNL1        0.0266
     17 C         139.2637  140.2586  166.5684 C.ar    1  UNL1       -0.0221
     18 C         139.2798  139.9275  168.0313 C.ar    1  UNL1       -0.0034
     19 C         139.9417  140.8581  169.0038 C.ar    1  UNL1        0.0111
     20 C         140.5877  142.1199  168.5134 C.ar    1  UNL1        0.0577
     21 CL        141.2497  143.0506  169.4858 Cl      1  UNL1       -0.0822
     22 C         140.5717  142.4511  167.0505 C.ar    1  UNL1        0.0111
     23 C         139.9097  141.5205  166.0780 C.ar    1  UNL1       -0.0034
@<TRIPOS>UNITY_ATOM_ATTR
1 1
charge 1
@<TRIPOS>BOND
     1    11    12    1
     2    12    10    1
     3    10     9    1
     4     9     8    1
     5     8     7    1
     6     7     6    1
     7     6     1    1
     8     1     2    1
     9     2     3    1
    10     1     4    1
    11     4     5    1
    12     1    13    1
    13    13    14    1
    14    14    15    1
    15    15    16    1
    16    16    17    1
    17    17    18   ar
    18    18    19   ar
    19    19    20   ar
    20    20    21    1
    21    20    22   ar
    22    22    23   ar
    23    23    17   ar
@<TRIPOS>MOLECULE
*****
 23 23 0 0 0
SMALL
GASTEIGER

@<TRIPOS>ATOM
      1 N         141.2152  141.1001  166.3936 N.4     1  UNL1        0.2970
      2 C         140.8430  141.9480  165.2135 C.3     1  UNL1        0.1086
      3 C         140.5531  141.3050  163.8897 C.3     1  UNL1        0.0671
      4 C         141.5874  140.2523  167.5738 C.3     1  UNL1        0.1086
      5 C         142.7499  139.3089  167.4826 C.3     1  UNL1        0.0671
      6 C         142.6610  141.1941  166.0052 C.3     1  UNL1        0.1084
      7 C         143.3511  142.5259  165.9996 C.3     1  UNL1        0.0610
      8 C         144.4113  142.8170  164.9792 C.3     1  UNL1        0.0061
      9 C         144.0405  143.4556  163.6737 C.3     1  UNL1        0.0002
     10 C         143.6202  144.8950  163.6355 C.3     1  UNL1        0.0000
     11 C         141.1918  145.1068  162.7367 C.3     1  UNL1        0.0000
     12 C         142.1822  145.2624  163.8524 C.3     1  UNL1        0.0000
     13 C         139.7694  141.0062  166.7821 C.3     1  UNL1        0.1084
     14 C         139.2003  139.6972  167.2434 C.3     1  UNL1        0.0614
     15 C         138.1574  139.0011  166.4201 C.3     1  UNL1        0.0108
     16 C         138.4955  137.7286  165.7014 C.3     1  UNL1        0.0266
     17 C         139.4213  137.7568  164.5216 C.ar    1  UNL1       -0.0221
     18 C         138.8659  137.9001  163.1356 C.ar    1  UNL1       -0.0034
     19 C         139.7918  137.9283  161.9558 C.ar    1  UNL1        0.0111
     20 C         141.2731  137.8132  162.1620 C.ar    1  UNL1        0.0577
     21 CL        142.1990  137.8414  160.9822 Cl      1  UNL1       -0.0822
     22 C         141.8285  137.6700  163.5479 C.ar    1  UNL1        0.0111
     23 C         140.9026  137.6418  164.7278 C.ar    1  UNL1       -0.0034
@<TRIPOS>UNITY_ATOM_ATTR
1 1
charge 1
@<TRIPOS>BOND
     1    11    12    1
     2    12    10    1
     3    10     9    1
     4     9     8    1
     5     8     7    1
     6     7     6    1
     7     6     1    1
     8     1     2    1
     9     2     3    1
    10     1     4    1
    11     4     5    1
    12     1    13    1
    13    13    14    1
    14    14    15    1
    15    15    16    1
    16    16    17    1
    17    17    18   ar
    18    18    19   ar
    19    19    20   ar
    20    20    21    1
    21    20    22   ar
    22    22    23   ar
    23    23    17   ar
@<TRIPOS>MOLECULE
*****
 23 23 0 0 0
SMALL
GASTEIGER

@<TRIPOS>ATOM
      1 N         142.6129  138.9875  164.1584 N.4     1  UNL1        0.2970
      2 C         142.7530  138.1831  165.4166 C.3     1  UNL1        0.1086
      3 C         143.1299  138.8596  166.7012 C.3     1  UNL1        0.0671
      4 C         142.4728  139.7920  162.9001 C.3     1  UNL1        0.1086
      5 C         141.3937  140.8278  162.7883 C.3     1  UNL1        0.0671
      6 C         143.6644  139.9381  164.6490 C.3     1  UNL1        0.1084
      7 C         144.9046  140.1687  163.8373 C.3     1  UNL1        0.0610
      8 C         145.6584  141.4588  163.9696 C.3     1  UNL1        0.0061
      9 C         144.9161  142.7620  163.9950 C.3     1  UNL1        0.0002
     10 C         144.4065  143.3599  162.7172 C.3     1  UNL1        0.0000
     11 C         142.8065  145.0692  163.8433 C.3     1  UNL1        0.0000
     12 C         143.1233  144.1366  162.7120 C.3     1  UNL1        0.0000
     13 C         141.5614  138.0369  163.6677 C.3     1  UNL1        0.1084
     14 C         140.6365  137.3725  164.6440 C.3     1  UNL1        0.0614
     15 C         139.2621  137.9282  164.8724 C.3     1  UNL1        0.0108
     16 C         139.0276  138.9209  165.9721 C.3     1  UNL1        0.0266
     17 C         139.0966  140.3911  165.6827 C.ar    1  UNL1       -0.0221
     18 C         138.1119  141.0169  164.7400 C.ar    1  UNL1       -0.0034
     19 C         138.1809  142.4871  164.4505 C.ar    1  UNL1        0.0111
     20 C         139.2345  143.3315  165.1038 C.ar    1  UNL1        0.0577
     21 CL        139.3035  144.8017  164.8143 Cl      1  UNL1       -0.0822
     22 C         140.2192  142.7056  166.0464 C.ar    1  UNL1        0.0111
     23 C         140.1502  141.2354  166.3359 C.ar    1  UNL1       -0.0034
@<TRIPOS>UNITY_ATOM_ATTR
1 1
charge 1
@<TRIPOS>BOND
     1    11    12    1
     2    12    10    1
     3    10     9    1
     4     9     8    1
     5     8     7    1
     6     7     6    1
     7     6     1    1
     8     1     2    1
     9     2     3    1
    10     1     4    1
    11     4     5    1
    12     1    13    1
    13    13    14    1
    14    14    15    1
    15    15    16    1
    16    16    17    1
    17    17    18   ar
    18    18    19   ar
    19    19    20   ar
    20    20    21    1
    21    20    22   ar
    22    22    23   ar
    23    23    17   ar
@<TRIPOS>MOLECULE
*****
 23 23 0 0 0
SMALL
GASTEIGER

@<TRIPOS>ATOM
      1 N         142.0682  142.1113  166.0116 N.4     1  UNL1        0.2970
      2 C         140.8660  141.9765  165.1247 C.3     1  UNL1        0.1086
      3 C         141.0348  141.9244  163.6352 C.3     1  UNL1        0.0671
      4 C         143.2704  142.2462  166.8984 C.3     1  UNL1        0.1086
      5 C         143.1013  142.3014  168.3878 C.3     1  UNL1        0.0671
      6 C         142.6935  143.0485  165.0213 C.3     1  UNL1        0.1084
      7 C         144.1866  143.1189  164.8947 C.3     1  UNL1        0.0610
      8 C         144.8597  142.5994  163.6590 C.3     1  UNL1        0.0061
      9 C         145.7176  141.3711  163.7322 C.3     1  UNL1        0.0002
     10 C         145.1661  140.1050  164.3176 C.3     1  UNL1        0.0000
     11 C         143.0054  138.7275  164.7462 C.3     1  UNL1        0.0000
     12 C         143.8524  139.5655  163.8350 C.3     1  UNL1        0.0000
     13 C         141.4428  141.1741  167.0018 C.3     1  UNL1        0.1084
     14 C         139.9493  141.0784  167.1041 C.3     1  UNL1        0.0614
     15 C         139.3122  139.8249  167.6263 C.3     1  UNL1        0.0108
     16 C         138.3096  139.0881  166.7886 C.3     1  UNL1        0.0266
     17 C         138.5755  138.8570  165.3305 C.ar    1  UNL1       -0.0221
     18 C         139.4200  137.6956  164.8971 C.ar    1  UNL1       -0.0034
     19 C         139.6860  137.4645  163.4391 C.ar    1  UNL1        0.0111
     20 C         139.1075  138.3948  162.4145 C.ar    1  UNL1        0.0577
     21 CL        139.3735  138.1637  160.9565 Cl      1  UNL1       -0.0822
     22 C         138.2630  139.5562  162.8479 C.ar    1  UNL1        0.0111
     23 C         137.9971  139.7873  164.3060 C.ar    1  UNL1       -0.0034
@<TRIPOS>UNITY_ATOM_ATTR
1 1
charge 1
@<TRIPOS>BOND
     1    11    12    1
     2    12    10    1
     3    10     9    1
     4     9     8    1
     5     8     7    1
     6     7     6    1
     7     6     1    1
     8     1     2    1
     9     2     3    1
    10     1     4    1
    11     4     5    1
    12     1    13    1
    13    13    14    1
    14    14    15    1
    15    15    16    1
    16    16    17    1
    17    17    18   ar
    18    18    19   ar
    19    19    20   ar
    20    20    21    1
    21    20    22   ar
    22    22    23   ar
    23    23    17   ar
@<TRIPOS>MOLECULE
*****
 23 23 0 0 0
SMALL
GASTEIGER

@<TRIPOS>ATOM
      1 N         139.5517  140.6888  166.5291 N.4     1  UNL1        0.2970
      2 C         139.6782  141.7264  165.4532 C.3     1  UNL1        0.1086
      3 C         140.4825  141.4349  164.2211 C.3     1  UNL1        0.0671
      4 C         139.4251  139.6513  167.6050 C.3     1  UNL1        0.1086
      5 C         139.0041  140.0522  168.9877 C.3     1  UNL1        0.0671
      6 C         140.6132  141.3865  167.3268 C.3     1  UNL1        0.1084
      7 C         140.4638  142.8404  167.6644 C.3     1  UNL1        0.0610
      8 C         140.5272  143.2886  169.0945 C.3     1  UNL1        0.0061
      9 C         141.7937  143.1155  169.8792 C.3     1  UNL1        0.0002
     10 C         142.0364  141.8464  170.6411 C.3     1  UNL1        0.0000
     11 C         142.5201  139.3927  169.9374 C.3     1  UNL1        0.0000
     12 C         142.9768  140.8126  170.0961 C.3     1  UNL1        0.0000
     13 C         138.4901  139.9912  165.7314 C.3     1  UNL1        0.1084
     14 C         138.4854  138.4941  165.6366 C.3     1  UNL1        0.0614
     15 C         139.1224  137.8151  164.4604 C.3     1  UNL1        0.0108
     16 C         140.4629  137.1587  164.6088 C.3     1  UNL1        0.0266
     17 C         141.7154  137.9747  164.4854 C.ar    1  UNL1       -0.0221
     18 C         142.3015  138.2491  163.1322 C.ar    1  UNL1       -0.0034
     19 C         143.5540  139.0652  163.0087 C.ar    1  UNL1        0.0111
     20 C         144.2204  139.6069  164.2385 C.ar    1  UNL1        0.0577
     21 CL        145.4730  140.4229  164.1150 Cl      1  UNL1       -0.0822
     22 C         143.6344  139.3325  165.5917 C.ar    1  UNL1        0.0111
     23 C         142.3818  138.5164  165.7151 C.ar    1  UNL1       -0.0034
@<TRIPOS>UNITY_ATOM_ATTR
1 1
charge 1
@<TRIPOS>BOND
     1    11    12    1
     2    12    10    1
     3    10     9    1
     4     9     8    1
     5     8     7    1
     6     7     6    1
     7     6     1    1
     8     1     2    1
     9     2     3    1
    10     1     4    1
    11     4     5    1
    12     1    13    1
    13    13    14    1
    14    14    15    1
    15    15    16    1
    16    16    17    1
    17    17    18   ar
    18    18    19   ar
    19    19    20   ar
    20    20    21    1
    21    20    22   ar
    22    22    23   ar
    23    23    17   ar
@<TRIPOS>MOLECULE
*****
 23 23 0 0 0
SMALL
GASTEIGER

@<TRIPOS>ATOM
      1 N         138.7195  139.6854  164.7157 N.4     1  UNL1        0.2970
      2 C         138.9985  139.1776  166.0992 C.3     1  UNL1        0.1086
      3 C         137.8787  138.6427  166.9418 C.3     1  UNL1        0.0671
      4 C         138.4405  140.1932  163.3321 C.3     1  UNL1        0.1086
      5 C         137.4853  141.3318  163.1295 C.3     1  UNL1        0.0671
      6 C         138.6215  141.0840  165.2488 C.3     1  UNL1        0.1084
      7 C         139.7449  141.6577  166.0604 C.3     1  UNL1        0.0610
      8 C         139.9474  143.1429  166.1165 C.3     1  UNL1        0.0061
      9 C         139.0679  144.0507  165.3088 C.3     1  UNL1        0.0002
     10 C         139.6769  144.9996  164.3194 C.3     1  UNL1        0.0000
     11 C         139.8776  145.8919  161.8877 C.3     1  UNL1        0.0000
     12 C         139.2834  144.9303  162.8737 C.3     1  UNL1        0.0000
     13 C         138.8175  138.2867  164.1826 C.3     1  UNL1        0.1084
     14 C         140.1016  137.5225  164.3133 C.3     1  UNL1        0.0614
     15 C         141.3433  138.0208  163.6350 C.3     1  UNL1        0.0108
     16 C         142.4208  138.6868  164.4382 C.3     1  UNL1        0.0266
     17 C         142.6153  140.1713  164.3469 C.ar    1  UNL1       -0.0221
     18 C         143.4092  140.8897  165.3974 C.ar    1  UNL1       -0.0034
     19 C         143.6037  142.3743  165.3062 C.ar    1  UNL1        0.0111
     20 C         143.0043  143.1404  164.1644 C.ar    1  UNL1        0.0577
     21 CL        143.1988  144.6249  164.0731 Cl      1  UNL1       -0.0822
     22 C         142.2104  142.4220  163.1139 C.ar    1  UNL1        0.0111
     23 C         142.0159  140.9375  163.2052 C.ar    1  UNL1       -0.0034
@<TRIPOS>UNITY_ATOM_ATTR
1 1
charge 1
@<TRIPOS>BOND
     1    11    12    1
     2    12    10    1
     3    10     9    1
     4     9     8    1
     5     8     7    1
     6     7     6    1
     7     6     1    1
     8     1     2    1
     9     2     3    1
    10     1     4    1
    11     4     5    1
    12     1    13    1
    13    13    14    1
    14    14    15    1
    15    15    16    1
    16    16    17    1
    17    17    18   ar
    18    18    19   ar
    19    19    20   ar
    20    20    21    1
    21    20    22   ar
    22    22    23   ar
    23    23    17   ar
