@<TRIPOS>MOLECULE
*****
 31 32 0 0 0
SMALL
GASTEIGER

@<TRIPOS>ATOM
      1 C         142.9251  139.3888  167.7936 C.3     1  UNL1        0.0077
      2 C         141.8379  139.4379  168.8260 C.3     1  UNL1        0.0475
      3 C         140.9771  140.6599  168.9511 C.3     1  UNL1        0.2054
      4 O         141.1747  141.8155  168.0155 O.3     1  UNL1       -0.4755
      5 C         138.4762  142.3097  164.4484 C.ar    1  UNL1        0.0815
      6 C         139.1452  143.5077  165.0545 C.ar    1  UNL1        0.0105
      7 C         140.0447  143.3429  166.2435 C.ar    1  UNL1        0.0371
      8 C         140.2752  141.9803  166.8265 C.ar    1  UNL1        0.1386
      9 C         139.6063  140.7823  166.2204 C.ar    1  UNL1        0.0371
     10 C         138.7068  140.9470  165.0314 C.ar    1  UNL1        0.0105
     11 N         136.6622  141.3581  162.8504 N.2     1  UNL1       -0.0994
     12 C         137.5767  142.4744  163.2594 C.2     1  UNL1        0.3093
     13 N         137.5918  143.7555  162.4793 N.pl3   1  UNL1       -0.2466
     14 H         136.0718  141.4662  162.0700 H       1  UNL1        0.3633
     15 H         137.0014  143.8636  161.6989 H       1  UNL1        0.2884
     16 H         138.1921  144.4882  162.7477 H       1  UNL1        0.2884
     17 C         142.6165  138.9246  166.4010 C.3     1  UNL1        0.0475
     18 C         143.2556  139.6025  165.2255 C.3     1  UNL1        0.2054
     19 O         143.7205  141.0240  165.3410 O.3     1  UNL1       -0.4755
     20 C         143.1117  142.0850  164.4728 C.ar    1  UNL1        0.1386
     21 C         142.1901  141.7008  163.3535 C.ar    1  UNL1        0.0371
     22 C         141.5814  142.7618  162.4855 C.ar    1  UNL1        0.0105
     23 C         141.8943  144.2072  162.7367 C.ar    1  UNL1        0.0815
     24 C         142.8159  144.5914  163.8561 C.ar    1  UNL1        0.0105
     25 C         143.4246  143.5304  164.7241 C.ar    1  UNL1        0.0371
     26 C         141.2855  145.2683  161.8686 C.2     1  UNL1        0.3093
     27 N         141.6043  145.3127  160.4036 N.2     1  UNL1       -0.0994
     28 N         140.3580  146.2848  162.4655 N.pl3   1  UNL1       -0.2466
     29 H         142.2131  144.6456  160.0118 H       1  UNL1        0.3633
     30 H         140.1488  146.2555  163.4271 H       1  UNL1        0.2884
     31 H         139.9585  146.9812  161.8958 H       1  UNL1        0.2884
@<TRIPOS>BOND
     1    11    12    2
     2    12    13    1
     3    12     5    1
     4     5     6   ar
     5     6     7   ar
     6     7     8   ar
     7     8     4    1
     8     4     3    1
     9     3     2    1
    10     2     1    1
    11     1    17    1
    12    17    18    1
    13    18    19    1
    14    19    20    1
    15    20    21   ar
    16    21    22   ar
    17    22    23   ar
    18    23    26    1
    19    26    27    2
    20    26    28    1
    21    23    24   ar
    22    24    25   ar
    23     8     9   ar
    24     9    10   ar
    25    10     5   ar
    26    25    20   ar
    27    11    14    1
    28    13    15    1
    29    13    16    1
    30    27    29    1
    31    28    30    1
    32    28    31    1
@<TRIPOS>MOLECULE
*****
 31 32 0 0 0
SMALL
GASTEIGER

@<TRIPOS>ATOM
      1 C         142.6753  138.2770  163.4350 C.3     1  UNL1        0.0077
      2 C         142.4478  139.0456  164.7029 C.3     1  UNL1        0.0475
      3 C         143.5594  139.8593  165.2964 C.3     1  UNL1        0.2054
      4 O         143.3885  141.3374  165.4857 O.3     1  UNL1       -0.4755
      5 C         141.0827  142.9015  169.0193 C.ar    1  UNL1        0.0815
      6 C         140.4205  142.7996  167.6773 C.ar    1  UNL1        0.0105
      7 C         141.1892  142.2782  166.4994 C.ar    1  UNL1        0.0371
      8 C         142.6199  141.8588  166.6636 C.ar    1  UNL1        0.1386
      9 C         143.2820  141.9607  168.0056 C.ar    1  UNL1        0.0371
     10 C         142.5134  142.4821  169.1835 C.ar    1  UNL1        0.0105
     11 N         139.9309  142.4961  171.3126 N.2     1  UNL1       -0.0994
     12 C         140.3140  143.4229  170.1972 C.2     1  UNL1        0.3093
     13 N         139.9285  144.8712  170.2597 N.pl3   1  UNL1       -0.2466
     14 H         139.4264  142.8383  172.0856 H       1  UNL1        0.3633
     15 H         139.4241  145.2134  171.0328 H       1  UNL1        0.2884
     16 H         140.1800  145.4795  169.5276 H       1  UNL1        0.2884
     17 C         142.3548  138.9035  162.1103 C.3     1  UNL1        0.0475
     18 C         141.1020  138.5172  161.3815 C.3     1  UNL1        0.2054
     19 O         139.7904  139.1360  161.7645 O.3     1  UNL1       -0.4755
     20 C         139.2736  138.9915  163.1653 C.ar    1  UNL1        0.1386
     21 C         138.9136  140.2107  163.9614 C.ar    1  UNL1        0.0371
     22 C         138.3969  140.0662  165.3621 C.ar    1  UNL1        0.0105
     23 C         138.2400  138.7024  165.9667 C.ar    1  UNL1        0.0815
     24 C         138.5999  137.4832  165.1705 C.ar    1  UNL1        0.0105
     25 C         139.1167  137.6277  163.7698 C.ar    1  UNL1        0.0371
     26 C         137.7232  138.5579  167.3674 C.2     1  UNL1        0.3093
     27 N         136.6172  137.5885  167.6625 N.2     1  UNL1       -0.0994
     28 N         138.3122  139.3829  168.4730 N.pl3   1  UNL1       -0.2466
     29 H         136.2306  137.0470  166.9369 H       1  UNL1        0.3633
     30 H         139.0381  140.0192  168.2793 H       1  UNL1        0.2884
     31 H         137.9730  139.2880  169.3924 H       1  UNL1        0.2884
@<TRIPOS>BOND
     1    11    12    2
     2    12    13    1
     3    12     5    1
     4     5     6   ar
     5     6     7   ar
     6     7     8   ar
     7     8     4    1
     8     4     3    1
     9     3     2    1
    10     2     1    1
    11     1    17    1
    12    17    18    1
    13    18    19    1
    14    19    20    1
    15    20    21   ar
    16    21    22   ar
    17    22    23   ar
    18    23    26    1
    19    26    27    2
    20    26    28    1
    21    23    24   ar
    22    24    25   ar
    23     8     9   ar
    24     9    10   ar
    25    10     5   ar
    26    25    20   ar
    27    11    14    1
    28    13    15    1
    29    13    16    1
    30    27    29    1
    31    28    30    1
    32    28    31    1
@<TRIPOS>MOLECULE
*****
 31 32 0 0 0
SMALL
GASTEIGER

@<TRIPOS>ATOM
      1 C         144.1914  139.3648  163.3722 C.3     1  UNL1        0.0077
      2 C         145.2759  140.0121  164.1815 C.3     1  UNL1        0.0475
      3 C         145.7166  141.4101  163.8629 C.3     1  UNL1        0.2054
      4 O         145.1850  142.5641  164.6601 O.3     1  UNL1       -0.4755
      5 C         141.3751  144.6022  163.4027 C.ar    1  UNL1        0.0815
      6 C         142.6267  144.7892  162.5975 C.ar    1  UNL1        0.0105
      7 C         143.8967  144.1098  163.0166 C.ar    1  UNL1        0.0371
      8 C         143.9150  143.2435  164.2409 C.ar    1  UNL1        0.1386
      9 C         142.6634  143.0564  165.0461 C.ar    1  UNL1        0.0371
     10 C         141.3934  143.7358  164.6270 C.ar    1  UNL1        0.0105
     11 N         140.1614  146.5531  162.1900 N.2     1  UNL1       -0.0994
     12 C         140.1051  145.2815  162.9835 C.2     1  UNL1        0.3093
     13 N         138.7789  144.6893  163.3580 N.pl3   1  UNL1       -0.2466
     14 H         139.3279  146.9990  161.9149 H       1  UNL1        0.3633
     15 H         137.9453  145.1352  163.0829 H       1  UNL1        0.2884
     16 H         138.7419  143.8547  163.8788 H       1  UNL1        0.2884
     17 C         142.7763  139.3760  163.8696 C.3     1  UNL1        0.0475
     18 C         142.4007  138.5752  165.0809 C.3     1  UNL1        0.2054
     19 O         141.2280  138.9891  165.9197 O.3     1  UNL1       -0.4755
     20 C         141.3849  140.0716  166.9462 C.ar    1  UNL1        0.1386
     21 C         142.7089  140.2804  167.6195 C.ar    1  UNL1        0.0371
     22 C         142.8658  141.3629  168.6460 C.ar    1  UNL1        0.0105
     23 C         141.6987  142.2365  168.9991 C.ar    1  UNL1        0.0815
     24 C         140.3747  142.0276  168.3258 C.ar    1  UNL1        0.0105
     25 C         140.2178  140.9452  167.2993 C.ar    1  UNL1        0.0371
     26 C         141.8556  143.3190  170.0256 C.2     1  UNL1        0.3093
     27 N         140.7372  144.2881  170.2706 N.2     1  UNL1       -0.0994
     28 N         143.1309  143.4323  170.8071 N.pl3   1  UNL1       -0.2466
     29 H         139.9002  144.2137  169.7576 H       1  UNL1        0.3633
     30 H         143.8649  142.7962  170.6464 H       1  UNL1        0.2884
     31 H         143.2339  144.1427  171.4808 H       1  UNL1        0.2884
@<TRIPOS>BOND
     1    11    12    2
     2    12    13    1
     3    12     5    1
     4     5     6   ar
     5     6     7   ar
     6     7     8   ar
     7     8     4    1
     8     4     3    1
     9     3     2    1
    10     2     1    1
    11     1    17    1
    12    17    18    1
    13    18    19    1
    14    19    20    1
    15    20    21   ar
    16    21    22   ar
    17    22    23   ar
    18    23    26    1
    19    26    27    2
    20    26    28    1
    21    23    24   ar
    22    24    25   ar
    23     8     9   ar
    24     9    10   ar
    25    10     5   ar
    26    25    20   ar
    27    11    14    1
    28    13    15    1
    29    13    16    1
    30    27    29    1
    31    28    30    1
    32    28    31    1
@<TRIPOS>MOLECULE
*****
 31 32 0 0 0
SMALL
GASTEIGER

@<TRIPOS>ATOM
      1 C         144.3008  139.3568  164.0948 C.3     1  UNL1        0.0077
      2 C         143.6075  138.6883  165.2448 C.3     1  UNL1        0.0475
      3 C         143.0580  139.5127  166.3710 C.3     1  UNL1        0.2054
      4 O         142.7498  140.9649  166.1565 O.3     1  UNL1       -0.4755
      5 C         138.9294  142.1760  164.1102 C.ar    1  UNL1        0.0815
      6 C         139.5942  140.8801  163.7514 C.ar    1  UNL1        0.0105
      7 C         140.8677  140.4764  164.4335 C.ar    1  UNL1        0.0371
      8 C         141.4763  141.3686  165.4744 C.ar    1  UNL1        0.1386
      9 C         140.8115  142.6644  165.8332 C.ar    1  UNL1        0.0371
     10 C         139.5381  143.0681  165.1511 C.ar    1  UNL1        0.0105
     11 N         136.6593  141.5351  163.0213 N.2     1  UNL1       -0.0994
     12 C         137.6559  142.5796  163.4281 C.2     1  UNL1        0.3093
     13 N         137.3791  144.0279  163.1527 N.pl3   1  UNL1       -0.2466
     14 H         135.8234  141.8000  162.5736 H       1  UNL1        0.3633
     15 H         136.5432  144.2928  162.7050 H       1  UNL1        0.2884
     16 H         138.0332  144.7135  163.4197 H       1  UNL1        0.2884
     17 C         145.5560  140.1435  164.3305 C.3     1  UNL1        0.0475
     18 C         145.7613  141.4552  163.6325 C.3     1  UNL1        0.2054
     19 O         145.1909  142.7133  164.2171 O.3     1  UNL1       -0.4755
     20 C         143.9702  143.3371  163.6082 C.ar    1  UNL1        0.1386
     21 C         143.2356  142.6294  162.5083 C.ar    1  UNL1        0.0371
     22 C         142.0149  143.2532  161.8994 C.ar    1  UNL1        0.0105
     23 C         141.5288  144.5846  162.3904 C.ar    1  UNL1        0.0815
     24 C         142.2633  145.2922  163.4902 C.ar    1  UNL1        0.0105
     25 C         143.4840  144.6685  164.0991 C.ar    1  UNL1        0.0371
     26 C         140.3080  145.2083  161.7814 C.2     1  UNL1        0.3093
     27 N         139.4489  144.4141  160.8427 N.2     1  UNL1       -0.0994
     28 N         139.9464  146.6262  162.1112 N.pl3   1  UNL1       -0.2466
     29 H         139.6862  143.4834  160.6263 H       1  UNL1        0.3633
     30 H         140.5103  147.1475  162.7273 H       1  UNL1        0.2884
     31 H         139.1452  147.0356  161.7115 H       1  UNL1        0.2884
@<TRIPOS>BOND
     1    11    12    2
     2    12    13    1
     3    12     5    1
     4     5     6   ar
     5     6     7   ar
     6     7     8   ar
     7     8     4    1
     8     4     3    1
     9     3     2    1
    10     2     1    1
    11     1    17    1
    12    17    18    1
    13    18    19    1
    14    19    20    1
    15    20    21   ar
    16    21    22   ar
    17    22    23   ar
    18    23    26    1
    19    26    27    2
    20    26    28    1
    21    23    24   ar
    22    24    25   ar
    23     8     9   ar
    24     9    10   ar
    25    10     5   ar
    26    25    20   ar
    27    11    14    1
    28    13    15    1
    29    13    16    1
    30    27    29    1
    31    28    30    1
    32    28    31    1
@<TRIPOS>MOLECULE
*****
 31 32 0 0 0
SMALL
GASTEIGER

@<TRIPOS>ATOM
      1 C         138.7611  139.0400  165.4537 C.3     1  UNL1        0.0077
      2 C         139.5202  137.8387  164.9734 C.3     1  UNL1        0.0475
      3 C         139.7397  137.6282  163.5046 C.3     1  UNL1        0.2054
      4 O         139.8846  138.8090  162.5911 O.3     1  UNL1       -0.4755
      5 C         143.7722  141.0701  162.4360 C.ar    1  UNL1        0.0815
      6 C         143.6728  139.8030  163.2325 C.ar    1  UNL1        0.0105
      7 C         142.3769  139.0493  163.2842 C.ar    1  UNL1        0.0371
      8 C         141.1804  139.5627  162.5394 C.ar    1  UNL1        0.1386
      9 C         141.2798  140.8299  161.7429 C.ar    1  UNL1        0.0371
     10 C         142.5757  141.5836  161.6912 C.ar    1  UNL1        0.0105
     11 N         146.1262  141.5678  163.4161 N.2     1  UNL1       -0.0994
     12 C         145.0680  141.8238  162.3843 C.2     1  UNL1        0.3093
     13 N         145.3057  142.8336  161.3008 N.pl3   1  UNL1       -0.2466
     14 H         146.9768  142.0625  163.3821 H       1  UNL1        0.3633
     15 H         146.1562  143.3282  161.2669 H       1  UNL1        0.2884
     16 H         144.6111  143.0016  160.6236 H       1  UNL1        0.2884
     17 C         138.6682  139.3306  166.9224 C.3     1  UNL1        0.0475
     18 C         139.6831  140.2204  167.5766 C.3     1  UNL1        0.2054
     19 O         141.0544  140.3562  166.9841 O.3     1  UNL1       -0.4755
     20 C         141.3775  141.5250  166.1011 C.ar    1  UNL1        0.1386
     21 C         140.3036  142.1492  165.2603 C.ar    1  UNL1        0.0371
     22 C         140.6267  143.3179  164.3773 C.ar    1  UNL1        0.0105
     23 C         142.0238  143.8624  164.3351 C.ar    1  UNL1        0.0815
     24 C         143.0977  143.2381  165.1758 C.ar    1  UNL1        0.0105
     25 C         142.7746  142.0694  166.0588 C.ar    1  UNL1        0.0371
     26 C         142.3469  145.0311  163.4520 C.2     1  UNL1        0.3093
     27 N         143.7257  145.1808  162.8806 N.2     1  UNL1       -0.0994
     28 N         141.2912  146.0501  163.1404 N.pl3   1  UNL1       -0.2466
     29 H         144.4185  144.5119  163.0851 H       1  UNL1        0.3633
     30 H         140.3862  145.9519  163.5155 H       1  UNL1        0.2884
     31 H         141.5032  146.8172  162.5609 H       1  UNL1        0.2884
@<TRIPOS>BOND
     1    11    12    2
     2    12    13    1
     3    12     5    1
     4     5     6   ar
     5     6     7   ar
     6     7     8   ar
     7     8     4    1
     8     4     3    1
     9     3     2    1
    10     2     1    1
    11     1    17    1
    12    17    18    1
    13    18    19    1
    14    19    20    1
    15    20    21   ar
    16    21    22   ar
    17    22    23   ar
    18    23    26    1
    19    26    27    2
    20    26    28    1
    21    23    24   ar
    22    24    25   ar
    23     8     9   ar
    24     9    10   ar
    25    10     5   ar
    26    25    20   ar
    27    11    14    1
    28    13    15    1
    29    13    16    1
    30    27    29    1
    31    28    30    1
    32    28    31    1
@<TRIPOS>MOLECULE
*****
 31 32 0 0 0
SMALL
GASTEIGER

@<TRIPOS>ATOM
      1 C         139.4054  137.7332  163.8743 C.3     1  UNL1        0.0077
      2 C         139.6166  138.1259  162.4421 C.3     1  UNL1        0.0475
      3 C         138.4535  138.1641  161.4956 C.3     1  UNL1        0.2054
      4 O         137.4201  139.2442  161.6205 O.3     1  UNL1       -0.4755
      5 C         138.6672  143.4432  162.6514 C.ar    1  UNL1        0.0815
      6 C         138.0913  142.5505  163.7103 C.ar    1  UNL1        0.0105
      7 C         137.6756  141.1508  163.3667 C.ar    1  UNL1        0.0371
      8 C         137.8358  140.6438  161.9641 C.ar    1  UNL1        0.1386
      9 C         138.4117  141.5365  160.9052 C.ar    1  UNL1        0.0371
     10 C         138.8274  142.9362  161.2489 C.ar    1  UNL1        0.0105
     11 N         139.1297  145.8950  161.9270 N.2     1  UNL1       -0.0994
     12 C         139.0829  144.8429  162.9951 C.2     1  UNL1        0.3093
     13 N         139.4518  145.1904  164.4068 N.pl3   1  UNL1       -0.2466
     14 H         139.4025  146.8136  162.1526 H       1  UNL1        0.3633
     15 H         139.7247  146.1091  164.6324 H       1  UNL1        0.2884
     16 H         139.4211  144.4999  165.1079 H       1  UNL1        0.2884
     17 C         140.5726  137.3090  164.7156 C.3     1  UNL1        0.0475
     18 C         141.7144  138.2542  164.9453 C.3     1  UNL1        0.2054
     19 O         141.4576  139.6140  165.5239 O.3     1  UNL1       -0.4755
     20 C         141.7871  140.8421  164.7281 C.ar    1  UNL1        0.1386
     21 C         141.7855  140.7873  163.2291 C.ar    1  UNL1        0.0371
     22 C         142.1151  142.0154  162.4334 C.ar    1  UNL1        0.0105
     23 C         142.4462  143.2983  163.1366 C.ar    1  UNL1        0.0815
     24 C         142.4478  143.3531  164.6356 C.ar    1  UNL1        0.0105
     25 C         142.1183  142.1250  165.4313 C.ar    1  UNL1        0.0371
     26 C         142.7758  144.5264  162.3408 C.2     1  UNL1        0.3093
     27 N         143.8350  145.4718  162.8248 N.2     1  UNL1       -0.0994
     28 N         142.0461  144.8090  161.0611 N.pl3   1  UNL1       -0.2466
     29 H         144.3139  145.2863  163.6647 H       1  UNL1        0.3633
     30 H         141.3509  144.1885  160.7435 H       1  UNL1        0.2884
     31 H         142.2624  145.6150  160.5388 H       1  UNL1        0.2884
@<TRIPOS>BOND
     1    11    12    2
     2    12    13    1
     3    12     5    1
     4     5     6   ar
     5     6     7   ar
     6     7     8   ar
     7     8     4    1
     8     4     3    1
     9     3     2    1
    10     2     1    1
    11     1    17    1
    12    17    18    1
    13    18    19    1
    14    19    20    1
    15    20    21   ar
    16    21    22   ar
    17    22    23   ar
    18    23    26    1
    19    26    27    2
    20    26    28    1
    21    23    24   ar
    22    24    25   ar
    23     8     9   ar
    24     9    10   ar
    25    10     5   ar
    26    25    20   ar
    27    11    14    1
    28    13    15    1
    29    13    16    1
    30    27    29    1
    31    28    30    1
    32    28    31    1
@<TRIPOS>MOLECULE
*****
 31 32 0 0 0
SMALL
GASTEIGER

@<TRIPOS>ATOM
      1 C         140.6563  137.9865  163.4078 C.3     1  UNL1        0.0077
      2 C         140.2171  137.2939  164.6639 C.3     1  UNL1        0.0475
      3 C         138.9009  137.6438  165.2924 C.3     1  UNL1        0.2054
      4 O         138.7780  138.8761  166.1387 O.3     1  UNL1       -0.4755
      5 C         138.7304  142.9389  164.2044 C.ar    1  UNL1        0.0815
      6 C         139.5014  142.7209  165.4724 C.ar    1  UNL1        0.0105
      7 C         139.5173  141.3666  166.1172 C.ar    1  UNL1        0.0371
      8 C         138.7621  140.2303  165.4940 C.ar    1  UNL1        0.1386
      9 C         137.9910  140.4483  164.2259 C.ar    1  UNL1        0.0371
     10 C         137.9752  141.8026  163.5811 C.ar    1  UNL1        0.0105
     11 N         139.7734  145.2990  163.9015 N.2     1  UNL1       -0.0994
     12 C         138.7145  144.2931  163.5596 C.2     1  UNL1        0.3093
     13 N         137.6397  144.6415  162.5730 N.pl3   1  UNL1       -0.2466
     14 H         139.7630  146.1878  163.4783 H       1  UNL1        0.3633
     15 H         137.6293  145.5303  162.1498 H       1  UNL1        0.2884
     16 H         136.9447  143.9813  162.3486 H       1  UNL1        0.2884
     17 C         141.9982  138.6542  163.3495 C.3     1  UNL1        0.0475
     18 C         142.1203  140.1194  163.6463 C.3     1  UNL1        0.2054
     19 O         143.2558  140.6221  164.4877 O.3     1  UNL1       -0.4755
     20 C         143.0710  140.8048  165.9651 C.ar    1  UNL1        0.1386
     21 C         142.7856  139.6185  166.8375 C.ar    1  UNL1        0.0371
     22 C         142.6008  139.8012  168.3148 C.ar    1  UNL1        0.0105
     23 C         142.7014  141.1702  168.9196 C.ar    1  UNL1        0.0815
     24 C         142.9867  142.3564  168.0472 C.ar    1  UNL1        0.0105
     25 C         143.1715  142.1737  166.5699 C.ar    1  UNL1        0.0371
     26 C         142.5165  141.3528  170.3970 C.2     1  UNL1        0.3093
     27 N         142.2292  140.1667  171.2692 N.2     1  UNL1       -0.0994
     28 N         142.6190  142.7215  171.0021 N.pl3   1  UNL1       -0.2466
     29 H         142.1620  139.2684  170.8720 H       1  UNL1        0.3633
     30 H         142.8076  143.4999  170.4297 H       1  UNL1        0.2884
     31 H         142.4977  142.8413  171.9717 H       1  UNL1        0.2884
@<TRIPOS>BOND
     1    11    12    2
     2    12    13    1
     3    12     5    1
     4     5     6   ar
     5     6     7   ar
     6     7     8   ar
     7     8     4    1
     8     4     3    1
     9     3     2    1
    10     2     1    1
    11     1    17    1
    12    17    18    1
    13    18    19    1
    14    19    20    1
    15    20    21   ar
    16    21    22   ar
    17    22    23   ar
    18    23    26    1
    19    26    27    2
    20    26    28    1
    21    23    24   ar
    22    24    25   ar
    23     8     9   ar
    24     9    10   ar
    25    10     5   ar
    26    25    20   ar
    27    11    14    1
    28    13    15    1
    29    13    16    1
    30    27    29    1
    31    28    30    1
    32    28    31    1
@<TRIPOS>MOLECULE
*****
 31 32 0 0 0
SMALL
GASTEIGER

@<TRIPOS>ATOM
      1 C         142.9001  139.9497  162.6118 C.3     1  UNL1        0.0077
      2 C         142.0551  139.2472  161.5908 C.3     1  UNL1        0.0475
      3 C         140.7545  139.8507  161.1501 C.3     1  UNL1        0.2054
      4 O         139.4593  139.1823  161.5046 O.3     1  UNL1       -0.4755
      5 C         138.2562  138.7523  165.8194 C.ar    1  UNL1        0.0815
      6 C         138.1369  140.0825  165.1365 C.ar    1  UNL1        0.0105
      7 C         138.5380  140.2258  163.6982 C.ar    1  UNL1        0.0371
      8 C         139.0582  139.0390  162.9429 C.ar    1  UNL1        0.1386
      9 C         139.1775  137.7088  163.6257 C.ar    1  UNL1        0.0371
     10 C         138.7765  137.5655  165.0640 C.ar    1  UNL1        0.0105
     11 N         136.7503  137.6685  167.6381 N.2     1  UNL1       -0.0994
     12 C         137.8552  138.6090  167.2577 C.2     1  UNL1        0.3093
     13 N         138.5590  139.4061  168.3155 N.pl3   1  UNL1       -0.2466
     14 H         136.4871  137.5744  168.5821 H       1  UNL1        0.3633
     15 H         138.2958  139.3120  169.2595 H       1  UNL1        0.2884
     16 H         139.2842  140.0234  168.0659 H       1  UNL1        0.2884
     17 C         143.3920  139.2061  163.8181 C.3     1  UNL1        0.0475
     18 C         143.0571  139.7027  165.1933 C.3     1  UNL1        0.2054
     19 O         143.1962  141.1603  165.5189 O.3     1  UNL1       -0.4755
     20 C         142.4721  141.7377  166.6990 C.ar    1  UNL1        0.1386
     21 C         143.1932  141.9321  167.9998 C.ar    1  UNL1        0.0371
     22 C         142.4691  142.5094  169.1797 C.ar    1  UNL1        0.0105
     23 C         141.0238  142.8922  169.0589 C.ar    1  UNL1        0.0815
     24 C         140.3026  142.6978  167.7581 C.ar    1  UNL1        0.0105
     25 C         141.0268  142.1205  166.5781 C.ar    1  UNL1        0.0371
     26 C         140.2997  143.4695  170.2389 C.2     1  UNL1        0.3093
     27 N         139.9552  144.9292  170.2668 N.2     1  UNL1       -0.0994
     28 N         139.9200  142.5872  171.3910 N.pl3   1  UNL1       -0.2466
     29 H         140.2044  145.5083  169.5106 H       1  UNL1        0.3633
     30 H         140.1461  141.6292  171.3727 H       1  UNL1        0.2884
     31 H         139.4448  142.9661  172.1655 H       1  UNL1        0.2884
@<TRIPOS>BOND
     1    11    12    2
     2    12    13    1
     3    12     5    1
     4     5     6   ar
     5     6     7   ar
     6     7     8   ar
     7     8     4    1
     8     4     3    1
     9     3     2    1
    10     2     1    1
    11     1    17    1
    12    17    18    1
    13    18    19    1
    14    19    20    1
    15    20    21   ar
    16    21    22   ar
    17    22    23   ar
    18    23    26    1
    19    26    27    2
    20    26    28    1
    21    23    24   ar
    22    24    25   ar
    23     8     9   ar
    24     9    10   ar
    25    10     5   ar
    26    25    20   ar
    27    11    14    1
    28    13    15    1
    29    13    16    1
    30    27    29    1
    31    28    30    1
    32    28    31    1
@<TRIPOS>MOLECULE
*****
 31 32 0 0 0
SMALL
GASTEIGER

@<TRIPOS>ATOM
      1 C         142.1321  138.7045  164.7990 C.3     1  UNL1        0.0077
      2 C         142.9096  138.7596  166.0807 C.3     1  UNL1        0.0475
      3 C         142.3414  139.4713  167.2725 C.3     1  UNL1        0.2054
      4 O         142.6898  140.9084  167.5244 O.3     1  UNL1       -0.4755
      5 C         142.2868  143.9341  164.2179 C.ar    1  UNL1        0.0815
      6 C         141.0683  143.4590  164.9524 C.ar    1  UNL1        0.0105
      7 C         141.2026  142.4504  166.0546 C.ar    1  UNL1        0.0371
      8 C         142.5554  141.9169  166.4222 C.ar    1  UNL1        0.1386
      9 C         143.7739  142.3920  165.6877 C.ar    1  UNL1        0.0371
     10 C         143.6396  143.4006  164.5856 C.ar    1  UNL1        0.0105
     11 N         143.1310  144.9462  161.9790 N.2     1  UNL1       -0.0994
     12 C         142.1525  144.9427  163.1158 C.2     1  UNL1        0.3093
     13 N         141.0396  145.9477  163.1504 N.pl3   1  UNL1       -0.2466
     14 H         143.0428  145.6081  161.2556 H       1  UNL1        0.3633
     15 H         140.9514  146.6097  162.4271 H       1  UNL1        0.2884
     16 H         140.3973  145.9455  163.8966 H       1  UNL1        0.2884
     17 C         141.2818  137.5084  164.4885 C.3     1  UNL1        0.0475
     18 C         139.8564  137.4606  164.9531 C.3     1  UNL1        0.2054
     19 O         138.7523  137.8857  164.0309 O.3     1  UNL1       -0.4755
     20 C         138.6764  139.3069  163.5571 C.ar    1  UNL1        0.1386
     21 C         138.0526  140.3559  164.4290 C.ar    1  UNL1        0.0371
     22 C         137.9767  141.7770  163.9551 C.ar    1  UNL1        0.0105
     23 C         138.5245  142.1491  162.6093 C.ar    1  UNL1        0.0815
     24 C         139.1483  141.1001  161.7373 C.ar    1  UNL1        0.0105
     25 C         139.2243  139.6790  162.2112 C.ar    1  UNL1        0.0371
     26 C         138.4486  143.5703  162.1354 C.2     1  UNL1        0.3093
     27 N         139.3747  144.0523  161.0583 N.2     1  UNL1       -0.0994
     28 N         137.4466  144.5095  162.7385 N.pl3   1  UNL1       -0.2466
     29 H         140.0324  143.4358  160.6624 H       1  UNL1        0.3633
     30 H         136.8387  144.1932  163.4454 H       1  UNL1        0.2884
     31 H         137.3967  145.4422  162.4275 H       1  UNL1        0.2884
@<TRIPOS>BOND
     1    11    12    2
     2    12    13    1
     3    12     5    1
     4     5     6   ar
     5     6     7   ar
     6     7     8   ar
     7     8     4    1
     8     4     3    1
     9     3     2    1
    10     2     1    1
    11     1    17    1
    12    17    18    1
    13    18    19    1
    14    19    20    1
    15    20    21   ar
    16    21    22   ar
    17    22    23   ar
    18    23    26    1
    19    26    27    2
    20    26    28    1
    21    23    24   ar
    22    24    25   ar
    23     8     9   ar
    24     9    10   ar
    25    10     5   ar
    26    25    20   ar
    27    11    14    1
    28    13    15    1
    29    13    16    1
    30    27    29    1
    31    28    30    1
    32    28    31    1
