@<TRIPOS>MOLECULE
*****
 27 30 0 0 0
SMALL
GASTEIGER

@<TRIPOS>ATOM
      1 C         138.8589  139.6679  164.5552 C.ar    1  UNL1        0.1060
      2 C         139.5991  140.7319  165.3103 C.ar    1  UNL1        0.0258
      3 C         139.6164  140.7129  166.8100 C.ar    1  UNL1        0.0608
      4 C         138.8934  139.6300  167.5548 C.ar    1  UNL1        0.2437
      5 N         138.1531  138.5660  166.7997 N.ar    1  UNL1       -0.1103
      6 N         138.1359  138.5850  165.2999 N.ar    1  UNL1       -0.1450
      7 O         136.7442  141.2194  163.0988 O.3     1  UNL1       -0.5054
      8 C         137.7844  140.4627  162.3272 C.ar    1  UNL1        0.1366
      9 C         137.7672  140.4817  160.8275 C.ar    1  UNL1        0.0558
     10 C         138.8073  139.7249  160.0559 C.ar    1  UNL1        0.0859
     11 C         139.8647  138.9492  160.7840 C.ar    1  UNL1        0.0194
     12 C         139.8818  138.9302  162.2837 C.ar    1  UNL1        0.0061
     13 C         138.8417  139.6869  163.0554 C.ar    1  UNL1        0.0532
     14 H         136.0837  141.7040  162.6440 H       1  UNL1        0.2922
     15 N         138.7901  139.7439  158.5560 N.ar    1  UNL1       -0.2280
     16 C         138.1722  140.8052  157.6947 C.ar    1  UNL1        0.1020
     17 C         138.3880  140.4221  156.2606 C.ar    1  UNL1        0.0431
     18 C         139.1393  139.1241  156.2356 C.ar    1  UNL1        0.1221
     19 N         139.3878  138.7049  157.6542 N.ar    1  UNL1       -0.1635
     20 O         138.9106  139.6110  169.0545 O.3     1  UNL1       -0.4629
     21 C         140.0130  140.3023  169.8007 C.3     1  UNL1        0.1704
     22 C         141.3238  139.6059  170.0169 C.3     1  UNL1        0.0607
     23 C         142.4263  140.2972  170.7631 C.3     1  UNL1        0.0723
     24 N         142.2178  141.6849  171.2931 N.3     1  UNL1       -0.2973
     25 C         140.9070  142.3812  171.0769 C.3     1  UNL1        0.0723
     26 C         139.8046  141.6899  170.3307 C.3     1  UNL1        0.0607
     27 H         142.9366  142.2725  170.8706 H       1  UNL1        0.1233
@<TRIPOS>BOND
     1     7     8    1
     2     8     9   ar
     3     9    10   ar
     4    10    15    1
     5    15    16   ar
     6    16    17   ar
     7    17    18   ar
     8    18    19   ar
     9    10    11   ar
    10    11    12   ar
    11    12    13   ar
    12    13     1    1
    13     1     2   ar
    14     2     3   ar
    15     3     4   ar
    16     4    20    1
    17    20    21    1
    18    21    22    1
    19    22    23    1
    20    23    24    1
    21    24    25    1
    22    25    26    1
    23     4     5   ar
    24     5     6   ar
    25    13     8   ar
    26     6     1   ar
    27    19    15   ar
    28    26    21    1
    29     7    14    1
    30    24    27    1
@<TRIPOS>MOLECULE
*****
 27 30 0 0 0
SMALL
GASTEIGER

@<TRIPOS>ATOM
      1 C         139.3137  141.1390  164.3437 C.ar    1  UNL1        0.1060
      2 C         140.1530  141.8206  165.3834 C.ar    1  UNL1        0.0258
      3 C         140.1735  141.3004  166.7901 C.ar    1  UNL1        0.0608
      4 C         139.3547  140.0983  167.1572 C.ar    1  UNL1        0.2437
      5 N         138.5153  139.4167  166.1176 N.ar    1  UNL1       -0.1103
      6 N         138.4948  139.9370  164.7108 N.ar    1  UNL1       -0.1450
      7 O         136.7022  141.4703  162.9048 O.3     1  UNL1       -0.5054
      8 C         137.9874  141.8250  162.2176 C.ar    1  UNL1        0.1366
      9 C         137.9670  142.3453  160.8109 C.ar    1  UNL1        0.0558
     10 C         139.2523  142.7000  160.1236 C.ar    1  UNL1        0.0859
     11 C         140.5580  142.5343  160.8430 C.ar    1  UNL1        0.0194
     12 C         140.5784  142.0140  162.2497 C.ar    1  UNL1        0.0061
     13 C         139.2932  141.6593  162.9370 C.ar    1  UNL1        0.0532
     14 H         135.8865  141.5738  162.4554 H       1  UNL1        0.2922
     15 N         139.2318  143.2203  158.7169 N.ar    1  UNL1       -0.2280
     16 C         139.9943  144.4059  158.2041 C.ar    1  UNL1        0.1020
     17 C         139.6789  144.5647  156.7463 C.ar    1  UNL1        0.0431
     18 C         138.7215  143.4772  156.3580 C.ar    1  UNL1        0.1221
     19 N         138.4452  142.6463  157.5759 N.ar    1  UNL1       -0.1635
     20 O         139.3752  139.5781  168.5639 O.3     1  UNL1       -0.4629
     21 C         140.3357  140.1531  169.5623 C.3     1  UNL1        0.1704
     22 C         141.6912  139.5360  169.7405 C.3     1  UNL1        0.0607
     23 C         142.6516  140.1110  170.7389 C.3     1  UNL1        0.0723
     24 N         142.2566  141.3031  171.5591 N.3     1  UNL1       -0.2973
     25 C         140.9012  141.9202  171.3809 C.3     1  UNL1        0.0723
     26 C         139.9407  141.3452  170.3825 C.3     1  UNL1        0.0607
     27 H         142.9409  142.0342  171.3646 H       1  UNL1        0.1233
@<TRIPOS>BOND
     1     7     8    1
     2     8     9   ar
     3     9    10   ar
     4    10    15    1
     5    15    16   ar
     6    16    17   ar
     7    17    18   ar
     8    18    19   ar
     9    10    11   ar
    10    11    12   ar
    11    12    13   ar
    12    13     1    1
    13     1     2   ar
    14     2     3   ar
    15     3     4   ar
    16     4    20    1
    17    20    21    1
    18    21    22    1
    19    22    23    1
    20    23    24    1
    21    24    25    1
    22    25    26    1
    23     4     5   ar
    24     5     6   ar
    25    13     8   ar
    26     6     1   ar
    27    19    15   ar
    28    26    21    1
    29     7    14    1
    30    24    27    1
@<TRIPOS>MOLECULE
*****
 27 30 0 0 0
SMALL
GASTEIGER

@<TRIPOS>ATOM
      1 C         140.2056  142.2269  164.2213 C.ar    1  UNL1        0.1060
      2 C         139.2508  141.0727  164.2988 C.ar    1  UNL1        0.0258
      3 C         139.0204  140.3763  165.6072 C.ar    1  UNL1        0.0608
      4 C         139.7449  140.8343  166.8383 C.ar    1  UNL1        0.2437
      5 N         140.6997  141.9886  166.7608 N.ar    1  UNL1       -0.1103
      6 N         140.9301  142.6849  165.4523 N.ar    1  UNL1       -0.1450
      7 O         139.9605  145.2118  164.0469 O.3     1  UNL1       -0.5054
      8 C         140.3134  144.4157  162.8256 C.ar    1  UNL1        0.1366
      9 C         140.5437  145.1119  161.5171 C.ar    1  UNL1        0.0558
     10 C         140.8966  144.3157  160.2958 C.ar    1  UNL1        0.0859
     11 C         141.0191  142.8233  160.3830 C.ar    1  UNL1        0.0194
     12 C         140.7888  142.1271  161.6915 C.ar    1  UNL1        0.0061
     13 C         140.4359  142.9233  162.9128 C.ar    1  UNL1        0.0532
     14 H         139.8840  146.1441  163.9925 H       1  UNL1        0.2922
     15 N         141.1269  145.0121  158.9873 N.ar    1  UNL1       -0.2280
     16 C         140.0837  145.7046  158.1615 C.ar    1  UNL1        0.1020
     17 C         140.7529  146.2586  156.9387 C.ar    1  UNL1        0.0431
     18 C         142.2098  145.9085  157.0088 C.ar    1  UNL1        0.1221
     19 N         142.4409  145.1380  158.2749 N.ar    1  UNL1       -0.1635
     20 O         139.5146  140.1380  168.1467 O.3     1  UNL1       -0.4629
     21 C         140.4399  140.3854  169.3011 C.3     1  UNL1        0.1704
     22 C         140.1008  141.4291  170.3237 C.3     1  UNL1        0.0607
     23 C         141.0261  141.6765  171.4781 C.3     1  UNL1        0.0723
     24 N         142.2905  140.8803  171.6099 N.3     1  UNL1       -0.2973
     25 C         142.6295  139.8367  170.5872 C.3     1  UNL1        0.0723
     26 C         141.7042  139.5892  169.4329 C.3     1  UNL1        0.0607
     27 H         142.2469  140.4057  172.5117 H       1  UNL1        0.1233
@<TRIPOS>BOND
     1     7     8    1
     2     8     9   ar
     3     9    10   ar
     4    10    15    1
     5    15    16   ar
     6    16    17   ar
     7    17    18   ar
     8    18    19   ar
     9    10    11   ar
    10    11    12   ar
    11    12    13   ar
    12    13     1    1
    13     1     2   ar
    14     2     3   ar
    15     3     4   ar
    16     4    20    1
    17    20    21    1
    18    21    22    1
    19    22    23    1
    20    23    24    1
    21    24    25    1
    22    25    26    1
    23     4     5   ar
    24     5     6   ar
    25    13     8   ar
    26     6     1   ar
    27    19    15   ar
    28    26    21    1
    29     7    14    1
    30    24    27    1
@<TRIPOS>MOLECULE
*****
 27 30 0 0 0
SMALL
GASTEIGER

@<TRIPOS>ATOM
      1 C         142.5573  138.9434  164.5330 C.ar    1  UNL1        0.1060
      2 C         141.3865  139.6745  165.1202 C.ar    1  UNL1        0.0258
      3 C         141.2858  139.8593  166.6053 C.ar    1  UNL1        0.0608
      4 C         142.3558  139.3129  167.5034 C.ar    1  UNL1        0.2437
      5 N         143.5267  138.5818  166.9162 N.ar    1  UNL1       -0.1103
      6 N         143.6274  138.3971  165.4310 N.ar    1  UNL1       -0.1450
      7 O         145.0693  139.7251  163.0911 O.3     1  UNL1       -0.5054
      8 C         143.9140  139.1495  162.3269 C.ar    1  UNL1        0.1366
      9 C         144.0147  138.9648  160.8417 C.ar    1  UNL1        0.0558
     10 C         142.8594  138.3893  160.0775 C.ar    1  UNL1        0.0859
     11 C         141.6034  137.9985  160.7984 C.ar    1  UNL1        0.0194
     12 C         141.5028  138.1832  162.2836 C.ar    1  UNL1        0.0061
     13 C         142.6581  138.7587  163.0478 C.ar    1  UNL1        0.0532
     14 H         145.8539  139.9692  162.6408 H       1  UNL1        0.2922
     15 N         142.9601  138.2045  158.5923 N.ar    1  UNL1       -0.2280
     16 C         143.0748  139.2994  157.5734 C.ar    1  UNL1        0.1020
     17 C         143.1494  138.6640  156.2167 C.ar    1  UNL1        0.0431
     18 C         143.0809  137.1764  156.3970 C.ar    1  UNL1        0.1221
     19 N         142.9639  136.8925  157.8653 N.ar    1  UNL1       -0.1635
     20 O         142.2551  139.4976  168.9885 O.3     1  UNL1       -0.4629
     21 C         141.8282  140.8204  169.5525 C.3     1  UNL1        0.1704
     22 C         140.3895  141.0561  169.9055 C.3     1  UNL1        0.0607
     23 C         139.9626  142.3788  170.4695 C.3     1  UNL1        0.0723
     24 N         140.9744  143.4659  170.6805 N.3     1  UNL1       -0.2973
     25 C         142.4131  143.2302  170.3275 C.3     1  UNL1        0.0723
     26 C         142.8399  141.9075  169.7635 C.3     1  UNL1        0.0607
     27 H         140.9496  143.7028  171.6723 H       1  UNL1        0.1233
@<TRIPOS>BOND
     1     7     8    1
     2     8     9   ar
     3     9    10   ar
     4    10    15    1
     5    15    16   ar
     6    16    17   ar
     7    17    18   ar
     8    18    19   ar
     9    10    11   ar
    10    11    12   ar
    11    12    13   ar
    12    13     1    1
    13     1     2   ar
    14     2     3   ar
    15     3     4   ar
    16     4    20    1
    17    20    21    1
    18    21    22    1
    19    22    23    1
    20    23    24    1
    21    24    25    1
    22    25    26    1
    23     4     5   ar
    24     5     6   ar
    25    13     8   ar
    26     6     1   ar
    27    19    15   ar
    28    26    21    1
    29     7    14    1
    30    24    27    1
@<TRIPOS>MOLECULE
*****
 27 30 0 0 0
SMALL
GASTEIGER

@<TRIPOS>ATOM
      1 C         141.8159  139.4287  164.1356 C.ar    1  UNL1        0.1060
      2 C         141.0228  140.1493  165.1853 C.ar    1  UNL1        0.0258
      3 C         141.4337  140.0648  166.6254 C.ar    1  UNL1        0.0608
      4 C         142.6376  139.2597  167.0159 C.ar    1  UNL1        0.2437
      5 N         143.4307  138.5392  165.9663 N.ar    1  UNL1       -0.1103
      6 N         143.0198  138.6237  164.5261 N.ar    1  UNL1       -0.1450
      7 O         141.3906  136.9195  162.5473 O.3     1  UNL1       -0.5054
      8 C         141.1924  138.2586  161.9013 C.ar    1  UNL1        0.1366
      9 C         140.7815  138.3432  160.4612 C.ar    1  UNL1        0.0558
     10 C         140.5833  139.6824  159.8152 C.ar    1  UNL1        0.0859
     11 C         140.7959  140.9370  160.6093 C.ar    1  UNL1        0.0194
     12 C         141.2068  140.8524  162.0494 C.ar    1  UNL1        0.0061
     13 C         141.4050  139.5133  162.6954 C.ar    1  UNL1        0.0532
     14 H         141.2578  136.1357  162.0512 H       1  UNL1        0.2922
     15 N         140.1724  139.7669  158.3750 N.ar    1  UNL1       -0.2280
     16 C         141.0701  140.0987  157.2200 C.ar    1  UNL1        0.1020
     17 C         140.2442  140.0713  155.9682 C.ar    1  UNL1        0.0431
     18 C         138.8359  139.7225  156.3495 C.ar    1  UNL1        0.1221
     19 N         138.7916  139.5344  157.8370 N.ar    1  UNL1       -0.1635
     20 O         143.0485  139.1753  168.4561 O.3     1  UNL1       -0.4629
     21 C         142.5407  140.1859  169.4414 C.3     1  UNL1        0.1704
     22 C         143.2246  141.5144  169.5730 C.3     1  UNL1        0.0607
     23 C         142.7168  142.5250  170.5583 C.3     1  UNL1        0.0723
     24 N         141.5252  142.2071  171.4120 N.3     1  UNL1       -0.2973
     25 C         140.8413  140.8786  171.2805 C.3     1  UNL1        0.0723
     26 C         141.3491  139.8680  170.2951 C.3     1  UNL1        0.0607
     27 H         140.8232  142.9204  171.2151 H       1  UNL1        0.1233
@<TRIPOS>BOND
     1     7     8    1
     2     8     9   ar
     3     9    10   ar
     4    10    15    1
     5    15    16   ar
     6    16    17   ar
     7    17    18   ar
     8    18    19   ar
     9    10    11   ar
    10    11    12   ar
    11    12    13   ar
    12    13     1    1
    13     1     2   ar
    14     2     3   ar
    15     3     4   ar
    16     4    20    1
    17    20    21    1
    18    21    22    1
    19    22    23    1
    20    23    24    1
    21    24    25    1
    22    25    26    1
    23     4     5   ar
    24     5     6   ar
    25    13     8   ar
    26     6     1   ar
    27    19    15   ar
    28    26    21    1
    29     7    14    1
    30    24    27    1
@<TRIPOS>MOLECULE
*****
 27 30 0 0 0
SMALL
GASTEIGER

@<TRIPOS>ATOM
      1 C         142.1426  143.3712  163.6247 C.ar    1  UNL1        0.1060
      2 C         143.5334  143.3755  164.1866 C.ar    1  UNL1        0.0258
      3 C         143.7794  142.8881  165.5837 C.ar    1  UNL1        0.0608
      4 C         142.6346  142.3965  166.4190 C.ar    1  UNL1        0.2437
      5 N         141.2438  142.3922  165.8571 N.ar    1  UNL1       -0.1103
      6 N         140.9978  142.8796  164.4600 N.ar    1  UNL1       -0.1450
      7 O         140.2265  145.6278  163.1387 O.3     1  UNL1       -0.5054
      8 C         140.9386  144.9869  161.9846 C.ar    1  UNL1        0.1366
      9 C         140.6927  145.4742  160.5875 C.ar    1  UNL1        0.0558
     10 C         141.4049  144.8333  159.4333 C.ar    1  UNL1        0.0859
     11 C         142.3629  143.7050  159.6763 C.ar    1  UNL1        0.0194
     12 C         142.6088  143.2177  161.0734 C.ar    1  UNL1        0.0061
     13 C         141.8967  143.8586  162.2276 C.ar    1  UNL1        0.0532
     14 H         139.6280  146.3326  162.9869 H       1  UNL1        0.2922
     15 N         141.1589  145.3207  158.0361 N.ar    1  UNL1       -0.2280
     16 C         141.9629  144.9602  156.8222 C.ar    1  UNL1        0.1020
     17 C         141.3667  145.6708  155.6435 C.ar    1  UNL1        0.0431
     18 C         140.1941  146.4706  156.1289 C.ar    1  UNL1        0.1221
     19 N         140.0658  146.2542  157.6076 N.ar    1  UNL1       -0.1635
     20 O         142.8806  141.9091  167.8161 O.3     1  UNL1       -0.4629
     21 C         141.7338  141.7611  168.7716 C.3     1  UNL1        0.1704
     22 C         141.1282  142.9756  169.4103 C.3     1  UNL1        0.0607
     23 C         139.9814  142.8276  170.3658 C.3     1  UNL1        0.0723
     24 N         139.4402  141.4650  170.6826 N.3     1  UNL1       -0.2973
     25 C         140.0459  140.2504  170.0439 C.3     1  UNL1        0.0723
     26 C         141.1926  140.3984  169.0884 C.3     1  UNL1        0.0607
     27 H         138.4536  141.4726  170.4241 H       1  UNL1        0.1233
@<TRIPOS>BOND
     1     7     8    1
     2     8     9   ar
     3     9    10   ar
     4    10    15    1
     5    15    16   ar
     6    16    17   ar
     7    17    18   ar
     8    18    19   ar
     9    10    11   ar
    10    11    12   ar
    11    12    13   ar
    12    13     1    1
    13     1     2   ar
    14     2     3   ar
    15     3     4   ar
    16     4    20    1
    17    20    21    1
    18    21    22    1
    19    22    23    1
    20    23    24    1
    21    24    25    1
    22    25    26    1
    23     4     5   ar
    24     5     6   ar
    25    13     8   ar
    26     6     1   ar
    27    19    15   ar
    28    26    21    1
    29     7    14    1
    30    24    27    1
@<TRIPOS>MOLECULE
*****
 27 30 0 0 0
SMALL
GASTEIGER

@<TRIPOS>ATOM
      1 C         139.8757  139.1462  164.4577 C.ar    1  UNL1        0.1060
      2 C         138.7366  138.3946  165.0802 C.ar    1  UNL1        0.0258
      3 C         138.4047  138.6001  166.5285 C.ar    1  UNL1        0.0608
      4 C         139.2120  139.5574  167.3544 C.ar    1  UNL1        0.2437
      5 N         140.3511  140.3090  166.7319 N.ar    1  UNL1       -0.1103
      6 N         140.6830  140.1034  165.2836 N.ar    1  UNL1       -0.1450
      7 O         142.7227  139.3311  163.5302 O.3     1  UNL1       -0.5054
      8 C         141.6310  139.0330  162.5456 C.ar    1  UNL1        0.1366
      9 C         141.9628  138.8274  161.0973 C.ar    1  UNL1        0.0558
     10 C         140.8711  138.5293  160.1128 C.ar    1  UNL1        0.0859
     11 C         139.4476  138.4369  160.5765 C.ar    1  UNL1        0.0194
     12 C         139.1159  138.6425  162.0248 C.ar    1  UNL1        0.0061
     13 C         140.2076  138.9406  163.0094 C.ar    1  UNL1        0.0532
     14 H         143.6119  139.3889  163.2405 H       1  UNL1        0.2922
     15 N         141.2030  138.3237  158.6644 N.ar    1  UNL1       -0.2280
     16 C         142.4572  137.7007  158.1271 C.ar    1  UNL1        0.1020
     17 C         142.3682  137.6970  156.6297 C.ar    1  UNL1        0.0431
     18 C         141.0589  138.3177  156.2416 C.ar    1  UNL1        0.1221
     19 N         140.3388  138.7050  157.4992 N.ar    1  UNL1       -0.1635
     20 O         138.8801  139.7629  168.8027 O.3     1  UNL1       -0.4629
     21 C         139.8503  140.4710  169.7012 C.3     1  UNL1        0.1704
     22 C         139.5675  141.8728  170.1540 C.3     1  UNL1        0.0607
     23 C         140.5377  142.5808  171.0526 C.3     1  UNL1        0.0723
     24 N         141.7906  141.8871  171.4984 N.3     1  UNL1       -0.2973
     25 C         142.0734  140.4853  171.0457 C.3     1  UNL1        0.0723
     26 C         141.1032  139.7773  170.1471 C.3     1  UNL1        0.0607
     27 H         141.7701  141.8687  172.5181 H       1  UNL1        0.1233
@<TRIPOS>BOND
     1     7     8    1
     2     8     9   ar
     3     9    10   ar
     4    10    15    1
     5    15    16   ar
     6    16    17   ar
     7    17    18   ar
     8    18    19   ar
     9    10    11   ar
    10    11    12   ar
    11    12    13   ar
    12    13     1    1
    13     1     2   ar
    14     2     3   ar
    15     3     4   ar
    16     4    20    1
    17    20    21    1
    18    21    22    1
    19    22    23    1
    20    23    24    1
    21    24    25    1
    22    25    26    1
    23     4     5   ar
    24     5     6   ar
    25    13     8   ar
    26     6     1   ar
    27    19    15   ar
    28    26    21    1
    29     7    14    1
    30    24    27    1
@<TRIPOS>MOLECULE
*****
 27 30 0 0 0
SMALL
GASTEIGER

@<TRIPOS>ATOM
      1 C         140.8203  139.2567  162.9122 C.ar    1  UNL1        0.1060
      2 C         140.1260  138.2617  163.7943 C.ar    1  UNL1        0.0258
      3 C         139.5959  138.6866  165.1316 C.ar    1  UNL1        0.0608
      4 C         139.7601  140.1064  165.5869 C.ar    1  UNL1        0.2437
      5 N         140.4545  141.1013  164.7048 N.ar    1  UNL1       -0.1103
      6 N         140.9846  140.6764  163.3674 N.ar    1  UNL1       -0.1450
      7 O         143.6242  138.2172  162.6713 O.3     1  UNL1       -0.5054
      8 C         142.7523  138.3120  161.4544 C.ar    1  UNL1        0.1366
      9 C         143.2823  137.8871  160.1170 C.ar    1  UNL1        0.0558
     10 C         142.4104  137.9820  158.9001 C.ar    1  UNL1        0.0859
     11 C         141.0086  138.5017  159.0206 C.ar    1  UNL1        0.0194
     12 C         140.4785  138.9266  160.3579 C.ar    1  UNL1        0.0061
     13 C         141.3504  138.8317  161.5748 C.ar    1  UNL1        0.0532
     14 H         144.4999  137.8925  162.5960 H       1  UNL1        0.2922
     15 N         142.9405  137.5571  157.5627 N.ar    1  UNL1       -0.2280
     16 C         142.7984  136.1953  156.9501 C.ar    1  UNL1        0.1020
     17 C         143.4758  136.2160  155.6120 C.ar    1  UNL1        0.0431
     18 C         144.0367  137.5906  155.3976 C.ar    1  UNL1        0.1221
     19 N         143.7059  138.4194  156.6032 N.ar    1  UNL1       -0.1635
     20 O         139.2300  140.5312  166.9242 O.3     1  UNL1       -0.4629
     21 C         140.0232  140.2561  168.1673 C.3     1  UNL1        0.1704
     22 C         141.4754  139.8944  168.0656 C.3     1  UNL1        0.0607
     23 C         142.2685  139.6193  169.3087 C.3     1  UNL1        0.0723
     24 N         141.6095  139.7057  170.6533 N.3     1  UNL1       -0.2973
     25 C         140.1574  140.0673  170.7550 C.3     1  UNL1        0.0723
     26 C         139.3642  140.3425  169.5119 C.3     1  UNL1        0.0607
     27 H         142.1250  140.4037  171.1896 H       1  UNL1        0.1233
@<TRIPOS>BOND
     1     7     8    1
     2     8     9   ar
     3     9    10   ar
     4    10    15    1
     5    15    16   ar
     6    16    17   ar
     7    17    18   ar
     8    18    19   ar
     9    10    11   ar
    10    11    12   ar
    11    12    13   ar
    12    13     1    1
    13     1     2   ar
    14     2     3   ar
    15     3     4   ar
    16     4    20    1
    17    20    21    1
    18    21    22    1
    19    22    23    1
    20    23    24    1
    21    24    25    1
    22    25    26    1
    23     4     5   ar
    24     5     6   ar
    25    13     8   ar
    26     6     1   ar
    27    19    15   ar
    28    26    21    1
    29     7    14    1
    30    24    27    1
@<TRIPOS>MOLECULE
*****
 27 30 0 0 0
SMALL
GASTEIGER

@<TRIPOS>ATOM
      1 C         143.2109  139.9764  164.0084 C.ar    1  UNL1        0.1060
      2 C         142.1278  140.7275  164.7245 C.ar    1  UNL1        0.0258
      3 C         141.8671  140.4637  166.1779 C.ar    1  UNL1        0.0608
      4 C         142.6896  139.4489  166.9153 C.ar    1  UNL1        0.2437
      5 N         143.7727  138.6978  166.1993 N.ar    1  UNL1       -0.1103
      6 N         144.0333  138.9615  164.7458 N.ar    1  UNL1       -0.1450
      7 O         143.3106  137.6940  162.0640 O.3     1  UNL1       -0.5054
      8 C         143.5214  139.0989  161.5828 C.ar    1  UNL1        0.1366
      9 C         143.7820  139.3627  160.1294 C.ar    1  UNL1        0.0558
     10 C         143.9928  140.7677  159.6481 C.ar    1  UNL1        0.0859
     11 C         143.9430  141.9089  160.6203 C.ar    1  UNL1        0.0194
     12 C         143.6823  141.6451  162.0737 C.ar    1  UNL1        0.0061
     13 C         143.4715  140.2401  162.5549 C.ar    1  UNL1        0.0532
     14 H         143.3418  136.9811  161.4567 H       1  UNL1        0.2922
     15 N         144.2535  141.0315  158.1946 N.ar    1  UNL1       -0.2280
     16 C         144.2274  142.3727  157.5234 C.ar    1  UNL1        0.1020
     17 C         144.5438  142.1704  156.0712 C.ar    1  UNL1        0.0431
     18 C         144.7653  140.7042  155.8448 C.ar    1  UNL1        0.1221
     19 N         144.5859  140.0003  157.1572 N.ar    1  UNL1       -0.1635
     20 O         142.4289  139.1852  168.3687 O.3     1  UNL1       -0.4629
     21 C         142.3215  140.3305  169.3313 C.3     1  UNL1        0.1704
     22 C         141.2448  140.3341  170.3757 C.3     1  UNL1        0.0607
     23 C         141.1374  141.4795  171.3383 C.3     1  UNL1        0.0723
     24 N         142.1067  142.6213  171.2565 N.3     1  UNL1       -0.2973
     25 C         143.1834  142.6177  170.2122 C.3     1  UNL1        0.0723
     26 C         143.2908  141.4723  169.2496 C.3     1  UNL1        0.0607
     27 H         142.5743  142.6759  172.1614 H       1  UNL1        0.1233
@<TRIPOS>BOND
     1     7     8    1
     2     8     9   ar
     3     9    10   ar
     4    10    15    1
     5    15    16   ar
     6    16    17   ar
     7    17    18   ar
     8    18    19   ar
     9    10    11   ar
    10    11    12   ar
    11    12    13   ar
    12    13     1    1
    13     1     2   ar
    14     2     3   ar
    15     3     4   ar
    16     4    20    1
    17    20    21    1
    18    21    22    1
    19    22    23    1
    20    23    24    1
    21    24    25    1
    22    25    26    1
    23     4     5   ar
    24     5     6   ar
    25    13     8   ar
    26     6     1   ar
    27    19    15   ar
    28    26    21    1
    29     7    14    1
    30    24    27    1
