@<TRIPOS>MOLECULE
*****
 30 33 0 0 0
SMALL
GASTEIGER

@<TRIPOS>ATOM
      1 C         140.4982  144.6882  164.0377 C.ar    1  UNL1        0.1488
      2 C         141.2118  145.2500  162.8439 C.ar    1  UNL1        0.0390
      3 C         142.5780  144.7477  162.4818 C.ar    1  UNL1        0.0417
      4 C         143.2306  143.6835  163.3134 C.ar    1  UNL1        0.1640
      5 N         144.5597  142.9970  163.2023 N.ar    1  UNL1       -0.2234
      6 C         144.6674  142.0108  164.3274 C.ar    1  UNL1        0.1197
      7 C         143.4050  142.0879  165.1338 C.ar    1  UNL1        0.1037
      8 N         142.5170  143.1216  164.5072 N.ar    1  UNL1       -0.2096
      9 N         141.1508  143.6240  164.8693 N.ar    1  UNL1       -0.1489
     10 C         143.0865  141.2740  166.3529 C.ar    1  UNL1        0.0223
     11 C         143.1969  139.7788  166.3064 C.ar    1  UNL1        0.0017
     12 C         142.8784  138.9650  167.5255 C.ar    1  UNL1        0.0032
     13 C         142.4494  139.6462  168.7911 C.ar    1  UNL1        0.0372
     14 C         142.3389  141.1415  168.8376 C.ar    1  UNL1        0.1469
     15 C         142.6575  141.9553  167.6185 C.ar    1  UNL1        0.0387
     16 O         141.9099  141.8228  170.1033 O.3     1  UNL1       -0.4045
     17 C         141.3022  143.1931  170.0485 C.3     1  UNL1        0.5753
     18 F         140.6945  144.5635  169.9936 F       1  UNL1       -0.1328
     19 F         142.6057  143.7889  170.4914 F       1  UNL1       -0.1328
     20 F         139.9988  142.5973  169.6055 F       1  UNL1       -0.1328
     21 N         139.1320  145.1905  164.3998 N.pl3   1  UNL1       -0.3168
     22 H         138.9631  146.1586  164.4589 H       1  UNL1        0.1482
     23 C         138.0230  144.2178  164.6719 C.3     1  UNL1        0.0883
     24 C         137.9355  138.9092  161.8770 C.3     1  UNL1        0.0896
     25 N         137.9574  140.2364  162.5758 N.3     1  UNL1       -0.2715
     26 C         137.8017  141.5023  161.7863 C.3     1  UNL1        0.0722
     27 C         137.8235  142.8294  162.4850 C.3     1  UNL1        0.0191
     28 C         138.0011  142.8907  163.9732 C.3     1  UNL1        0.0223
     29 C         138.1569  141.6248  164.7626 C.3     1  UNL1        0.0191
     30 C         138.1350  140.2976  164.0639 C.3     1  UNL1        0.0722
@<TRIPOS>BOND
     1    24    25    1
     2    25    26    1
     3    26    27    1
     4    27    28    1
     5    28    23    1
     6    23    21    1
     7    21     1    1
     8     1     2   ar
     9     2     3   ar
    10     3     4   ar
    11     4     5   ar
    12     5     6   ar
    13     6     7   ar
    14     7    10    1
    15    10    11   ar
    16    11    12   ar
    17    12    13   ar
    18    13    14   ar
    19    14    16    1
    20    16    17    1
    21    17    18    1
    22    17    19    1
    23    17    20    1
    24    14    15   ar
    25     7     8   ar
    26     8     9   ar
    27    28    29    1
    28    29    30    1
    29    30    25    1
    30     9     1   ar
    31     8     4   ar
    32    15    10   ar
    33    21    22    1
@<TRIPOS>MOLECULE
*****
 30 33 0 0 0
SMALL
GASTEIGER

@<TRIPOS>ATOM
      1 C         144.0518  140.3219  164.4176 C.ar    1  UNL1        0.1488
      2 C         145.3988  140.7123  163.8857 C.ar    1  UNL1        0.0390
      3 C         145.5808  142.0352  163.2027 C.ar    1  UNL1        0.0417
      4 C         144.4158  142.9679  163.0516 C.ar    1  UNL1        0.1640
      5 N         144.2923  144.3271  162.4292 N.ar    1  UNL1       -0.2234
      6 C         142.8689  144.7768  162.5766 C.ar    1  UNL1        0.1197
      7 C         142.1127  143.6955  163.2900 C.ar    1  UNL1        0.1037
      8 N         143.0687  142.5776  163.5836 N.ar    1  UNL1       -0.2096
      9 N         142.8867  141.2546  164.2666 N.ar    1  UNL1       -0.1489
     10 C         140.6562  143.7267  163.6471 C.ar    1  UNL1        0.0223
     11 C         140.1625  144.6728  164.7012 C.ar    1  UNL1        0.0017
     12 C         138.7060  144.7039  165.0584 C.ar    1  UNL1        0.0032
     13 C         137.7431  143.7891  164.3614 C.ar    1  UNL1        0.0372
     14 C         138.2368  142.8430  163.3073 C.ar    1  UNL1        0.1469
     15 C         139.6933  142.8118  162.9501 C.ar    1  UNL1        0.0387
     16 O         137.2739  141.9280  162.6102 O.3     1  UNL1       -0.4045
     17 C         137.5386  140.4522  162.5677 C.3     1  UNL1        0.5753
     18 F         137.8033  138.9763  162.5252 F       1  UNL1       -0.1328
     19 F         137.6424  140.4277  164.0639 F       1  UNL1       -0.1328
     20 F         137.4347  140.4767  161.0715 F       1  UNL1       -0.1328
     21 N         143.8697  138.9989  165.1007 N.pl3   1  UNL1       -0.3168
     22 H         144.6539  138.4437  165.3154 H       1  UNL1        0.1482
     23 C         142.4929  138.5217  165.4565 C.3     1  UNL1        0.0883
     24 C         139.5044  141.0887  169.9819 C.3     1  UNL1        0.0896
     25 N         140.2515  140.4469  168.8506 N.3     1  UNL1       -0.2715
     26 C         139.5538  140.1717  167.5515 C.3     1  UNL1        0.0722
     27 C         140.3009  139.5300  166.4202 C.3     1  UNL1        0.0191
     28 C         141.7457  139.1635  166.5879 C.3     1  UNL1        0.0223
     29 C         142.4434  139.4387  167.8869 C.3     1  UNL1        0.0191
     30 C         141.6963  140.0804  169.0182 C.3     1  UNL1        0.0722
@<TRIPOS>BOND
     1    24    25    1
     2    25    26    1
     3    26    27    1
     4    27    28    1
     5    28    23    1
     6    23    21    1
     7    21     1    1
     8     1     2   ar
     9     2     3   ar
    10     3     4   ar
    11     4     5   ar
    12     5     6   ar
    13     6     7   ar
    14     7    10    1
    15    10    11   ar
    16    11    12   ar
    17    12    13   ar
    18    13    14   ar
    19    14    16    1
    20    16    17    1
    21    17    18    1
    22    17    19    1
    23    17    20    1
    24    14    15   ar
    25     7     8   ar
    26     8     9   ar
    27    28    29    1
    28    29    30    1
    29    30    25    1
    30     9     1   ar
    31     8     4   ar
    32    15    10   ar
    33    21    22    1
@<TRIPOS>MOLECULE
*****
 30 33 0 0 0
SMALL
GASTEIGER

@<TRIPOS>ATOM
      1 C         144.1927  140.2765  164.5446 C.ar    1  UNL1        0.1488
      2 C         145.5178  140.6765  163.9666 C.ar    1  UNL1        0.0390
      3 C         145.6517  141.9733  163.2248 C.ar    1  UNL1        0.0417
      4 C         144.4605  142.8701  163.0611 C.ar    1  UNL1        0.1640
      5 N         144.2895  144.1983  162.3852 N.ar    1  UNL1       -0.2234
      6 C         142.8587  144.6191  162.5455 C.ar    1  UNL1        0.1197
      7 C         142.1455  143.5510  163.3205 C.ar    1  UNL1        0.1037
      8 N         143.1355  142.4701  163.6391 N.ar    1  UNL1       -0.2096
      9 N         143.0016  141.1733  164.3809 N.ar    1  UNL1       -0.1489
     10 C         140.6966  143.5620  163.7087 C.ar    1  UNL1        0.0223
     11 C         140.1357  144.7193  164.4807 C.ar    1  UNL1        0.0017
     12 C         138.6869  144.7302  164.8689 C.ar    1  UNL1        0.0032
     13 C         137.7989  143.5839  164.4852 C.ar    1  UNL1        0.0372
     14 C         138.3598  142.4265  163.7133 C.ar    1  UNL1        0.1469
     15 C         139.8087  142.4156  163.3250 C.ar    1  UNL1        0.0387
     16 O         137.4718  141.2800  163.3295 O.3     1  UNL1       -0.4045
     17 C         137.9259  139.8694  163.5615 C.3     1  UNL1        0.5753
     18 F         138.3800  138.4586  163.7937 F       1  UNL1       -0.1328
     19 F         138.1431  139.6968  162.0874 F       1  UNL1       -0.1328
     20 F         137.7086  140.0420  165.0357 F       1  UNL1       -0.1328
     21 N         144.0588  138.9796  165.2865 N.pl3   1  UNL1       -0.3168
     22 H         144.8602  138.4478  165.4969 H       1  UNL1        0.1482
     23 C         142.7039  138.4930  165.7077 C.3     1  UNL1        0.0883
     24 C         139.7061  141.3506  170.0491 C.3     1  UNL1        0.0896
     25 N         140.4556  140.6362  168.9637 N.3     1  UNL1       -0.2715
     26 C         141.8610  140.1705  169.2042 C.3     1  UNL1        0.0722
     27 C         142.6105  139.4562  168.1189 C.3     1  UNL1        0.0191
     28 C         141.9545  139.2074  166.7931 C.3     1  UNL1        0.0223
     29 C         140.5490  139.6730  166.5527 C.3     1  UNL1        0.0191
     30 C         139.7995  140.3874  167.6380 C.3     1  UNL1        0.0722
@<TRIPOS>BOND
     1    24    25    1
     2    25    26    1
     3    26    27    1
     4    27    28    1
     5    28    23    1
     6    23    21    1
     7    21     1    1
     8     1     2   ar
     9     2     3   ar
    10     3     4   ar
    11     4     5   ar
    12     5     6   ar
    13     6     7   ar
    14     7    10    1
    15    10    11   ar
    16    11    12   ar
    17    12    13   ar
    18    13    14   ar
    19    14    16    1
    20    16    17    1
    21    17    18    1
    22    17    19    1
    23    17    20    1
    24    14    15   ar
    25     7     8   ar
    26     8     9   ar
    27    28    29    1
    28    29    30    1
    29    30    25    1
    30     9     1   ar
    31     8     4   ar
    32    15    10   ar
    33    21    22    1
@<TRIPOS>MOLECULE
*****
 30 33 0 0 0
SMALL
GASTEIGER

@<TRIPOS>ATOM
      1 C         143.8973  140.2998  163.9903 C.ar    1  UNL1        0.1488
      2 C         145.2543  140.7361  163.5234 C.ar    1  UNL1        0.0390
      3 C         145.4653  142.1402  163.0395 C.ar    1  UNL1        0.0417
      4 C         144.3192  143.1078  163.0226 C.ar    1  UNL1        0.1640
      5 N         144.2252  144.5450  162.6033 N.ar    1  UNL1       -0.2234
      6 C         142.8100  144.9968  162.8111 C.ar    1  UNL1        0.1197
      7 C         142.0295  143.8388  163.3588 C.ar    1  UNL1        0.1037
      8 N         142.9622  142.6714  163.4895 N.ar    1  UNL1       -0.2096
      9 N         142.7513  141.2674  163.9733 N.ar    1  UNL1       -0.1489
     10 C         140.5721  143.8469  163.7135 C.ar    1  UNL1        0.0223
     11 C         140.0603  144.7909  164.7609 C.ar    1  UNL1        0.0017
     12 C         138.6029  144.7990  165.1156 C.ar    1  UNL1        0.0032
     13 C         137.6572  143.8631  164.4230 C.ar    1  UNL1        0.0372
     14 C         138.1690  142.9190  163.3757 C.ar    1  UNL1        0.1469
     15 C         139.6264  142.9110  163.0210 C.ar    1  UNL1        0.0387
     16 O         137.2232  141.9830  162.6830 O.3     1  UNL1       -0.4045
     17 C         137.5584  140.5252  162.5712 C.3     1  UNL1        0.5753
     18 F         137.8935  139.0674  162.4593 F       1  UNL1       -0.1328
     19 F         137.6232  140.4254  164.0665 F       1  UNL1       -0.1328
     20 F         137.4936  140.6251  161.0759 F       1  UNL1       -0.1328
     21 N         143.6863  138.8957  164.4742 N.pl3   1  UNL1       -0.3168
     22 H         144.3473  138.4762  165.0711 H       1  UNL1        0.1482
     23 C         142.4682  138.1308  164.0485 C.3     1  UNL1        0.0883
     24 C         137.3911  138.5700  167.2156 C.3     1  UNL1        0.0896
     25 N         138.6604  138.4602  166.4238 N.3     1  UNL1       -0.2715
     26 C         139.8289  139.3409  166.7539 C.3     1  UNL1        0.0722
     27 C         141.0981  139.2311  165.9622 C.3     1  UNL1        0.0191
     28 C         141.1989  138.2406  164.8403 C.3     1  UNL1        0.0223
     29 C         140.0305  137.3599  164.5101 C.3     1  UNL1        0.0191
     30 C         138.7612  137.4696  165.3019 C.3     1  UNL1        0.0722
@<TRIPOS>BOND
     1    24    25    1
     2    25    26    1
     3    26    27    1
     4    27    28    1
     5    28    23    1
     6    23    21    1
     7    21     1    1
     8     1     2   ar
     9     2     3   ar
    10     3     4   ar
    11     4     5   ar
    12     5     6   ar
    13     6     7   ar
    14     7    10    1
    15    10    11   ar
    16    11    12   ar
    17    12    13   ar
    18    13    14   ar
    19    14    16    1
    20    16    17    1
    21    17    18    1
    22    17    19    1
    23    17    20    1
    24    14    15   ar
    25     7     8   ar
    26     8     9   ar
    27    28    29    1
    28    29    30    1
    29    30    25    1
    30     9     1   ar
    31     8     4   ar
    32    15    10   ar
    33    21    22    1
@<TRIPOS>MOLECULE
*****
 30 33 0 0 0
SMALL
GASTEIGER

@<TRIPOS>ATOM
      1 C         143.8338  143.1891  164.2254 C.ar    1  UNL1        0.1488
      2 C         143.7899  144.5400  163.5750 C.ar    1  UNL1        0.0390
      3 C         142.4846  145.2673  163.4441 C.ar    1  UNL1        0.0417
      4 C         141.2232  144.6437  163.9636 C.ar    1  UNL1        0.1640
      5 N         139.8002  145.1182  163.9759 N.ar    1  UNL1       -0.2234
      6 C         138.9646  144.0605  164.6340 C.ar    1  UNL1        0.1197
      7 C         139.8712  142.9323  165.0283 C.ar    1  UNL1        0.1037
      8 N         141.2670  143.2928  164.6140 N.ar    1  UNL1       -0.2096
      9 N         142.5723  142.5655  164.7449 N.ar    1  UNL1       -0.1489
     10 C         139.4550  141.6660  165.7162 C.ar    1  UNL1        0.0223
     11 C         138.5177  140.7147  165.0333 C.ar    1  UNL1        0.0017
     12 C         138.1015  139.4484  165.7212 C.ar    1  UNL1        0.0032
     13 C         138.6225  139.1333  167.0920 C.ar    1  UNL1        0.0372
     14 C         139.5599  140.0847  167.7749 C.ar    1  UNL1        0.1469
     15 C         139.9761  141.3510  167.0870 C.ar    1  UNL1        0.0387
     16 O         140.0810  139.7697  169.1458 O.3     1  UNL1       -0.4045
     17 C         140.2277  140.8632  170.1620 C.3     1  UNL1        0.5753
     18 F         140.3743  141.9568  171.1782 F       1  UNL1       -0.1328
     19 F         141.7204  140.7654  170.0518 F       1  UNL1       -0.1328
     20 F         138.7349  140.9610  170.2721 F       1  UNL1       -0.1328
     21 N         145.1391  142.4617  164.3563 N.pl3   1  UNL1       -0.3168
     22 H         145.8664  142.8488  164.8952 H       1  UNL1        0.1482
     23 C         145.3363  141.1446  163.6662 C.3     1  UNL1        0.0883
     24 C         141.0998  136.9102  164.0168 C.3     1  UNL1        0.0896
     25 N         142.1589  137.9688  163.9292 N.3     1  UNL1       -0.2715
     26 C         142.8128  138.4808  165.1783 C.3     1  UNL1        0.0722
     27 C         143.8719  139.5393  165.0907 C.3     1  UNL1        0.0191
     28 C         144.2771  140.0860  163.7539 C.3     1  UNL1        0.0223
     29 C         143.6232  139.5740  162.5048 C.3     1  UNL1        0.0191
     30 C         142.5641  138.5155  162.5924 C.3     1  UNL1        0.0722
@<TRIPOS>BOND
     1    24    25    1
     2    25    26    1
     3    26    27    1
     4    27    28    1
     5    28    23    1
     6    23    21    1
     7    21     1    1
     8     1     2   ar
     9     2     3   ar
    10     3     4   ar
    11     4     5   ar
    12     5     6   ar
    13     6     7   ar
    14     7    10    1
    15    10    11   ar
    16    11    12   ar
    17    12    13   ar
    18    13    14   ar
    19    14    16    1
    20    16    17    1
    21    17    18    1
    22    17    19    1
    23    17    20    1
    24    14    15   ar
    25     7     8   ar
    26     8     9   ar
    27    28    29    1
    28    29    30    1
    29    30    25    1
    30     9     1   ar
    31     8     4   ar
    32    15    10   ar
    33    21    22    1
@<TRIPOS>MOLECULE
*****
 30 33 0 0 0
SMALL
GASTEIGER

@<TRIPOS>ATOM
      1 C         138.6920  139.7231  164.4127 C.ar    1  UNL1        0.1488
      2 C         137.9356  139.3402  165.6500 C.ar    1  UNL1        0.0390
      3 C         138.6244  139.3472  166.9824 C.ar    1  UNL1        0.0417
      4 C         140.0697  139.7372  167.0775 C.ar    1  UNL1        0.1640
      5 N         141.0077  139.8369  168.2438 N.ar    1  UNL1       -0.2234
      6 C         142.3439  140.2815  167.7272 C.ar    1  UNL1        0.1197
      7 C         142.2317  140.4565  166.2417 C.ar    1  UNL1        0.1037
      8 N         140.8261  140.1202  165.8402 N.ar    1  UNL1       -0.2096
      9 N         140.1373  140.1131  164.5078 N.ar    1  UNL1       -0.1489
     10 C         143.3319  140.8916  165.3196 C.ar    1  UNL1        0.0223
     11 C         144.3679  139.9044  164.8699 C.ar    1  UNL1        0.0017
     12 C         145.4681  140.3395  163.9478 C.ar    1  UNL1        0.0032
     13 C         145.5323  141.7616  163.4753 C.ar    1  UNL1        0.0372
     14 C         144.4963  142.7488  163.9249 C.ar    1  UNL1        0.1469
     15 C         143.3961  142.3137  164.8471 C.ar    1  UNL1        0.0387
     16 O         144.5604  144.1710  163.4524 O.3     1  UNL1       -0.4045
     17 C         143.3359  145.0356  163.5076 C.3     1  UNL1        0.5753
     18 F         142.1114  145.9003  163.5629 F       1  UNL1       -0.1328
     19 F         142.6844  144.1796  162.4624 F       1  UNL1       -0.1328
     20 F         143.9876  145.8917  164.5529 F       1  UNL1       -0.1328
     21 N         138.0032  139.7161  163.0801 N.pl3   1  UNL1       -0.3168
     22 H         138.0793  138.9311  162.4908 H       1  UNL1        0.1482
     23 C         137.1986  140.9050  162.6455 C.3     1  UNL1        0.0883
     24 C         139.9548  146.0582  161.2859 C.3     1  UNL1        0.0896
     25 N         139.2657  144.7698  161.6258 N.3     1  UNL1       -0.2715
     26 C         138.4699  144.6564  162.8921 C.3     1  UNL1        0.0722
     27 C         137.7808  143.3682  163.2321 C.3     1  UNL1        0.0191
     28 C         137.8877  142.1934  162.3056 C.3     1  UNL1        0.0223
     29 C         138.6835  142.3068  161.0392 C.3     1  UNL1        0.0191
     30 C         139.3726  143.5950  160.6993 C.3     1  UNL1        0.0722
@<TRIPOS>BOND
     1    24    25    1
     2    25    26    1
     3    26    27    1
     4    27    28    1
     5    28    23    1
     6    23    21    1
     7    21     1    1
     8     1     2   ar
     9     2     3   ar
    10     3     4   ar
    11     4     5   ar
    12     5     6   ar
    13     6     7   ar
    14     7    10    1
    15    10    11   ar
    16    11    12   ar
    17    12    13   ar
    18    13    14   ar
    19    14    16    1
    20    16    17    1
    21    17    18    1
    22    17    19    1
    23    17    20    1
    24    14    15   ar
    25     7     8   ar
    26     8     9   ar
    27    28    29    1
    28    29    30    1
    29    30    25    1
    30     9     1   ar
    31     8     4   ar
    32    15    10   ar
    33    21    22    1
@<TRIPOS>MOLECULE
*****
 30 33 0 0 0
SMALL
GASTEIGER

@<TRIPOS>ATOM
      1 C         141.7154  144.6963  163.7615 C.ar    1  UNL1        0.1488
      2 C         143.1600  144.8782  163.4011 C.ar    1  UNL1        0.0390
      3 C         144.1479  143.7868  163.6892 C.ar    1  UNL1        0.0417
      4 C         143.6912  142.5136  164.3376 C.ar    1  UNL1        0.1640
      5 N         144.4293  141.2715  164.7404 N.ar    1  UNL1       -0.2234
      6 C         143.4408  140.3220  165.3497 C.ar    1  UNL1        0.1197
      7 C         142.0918  140.9773  165.3235 C.ar    1  UNL1        0.1037
      8 N         142.2465  142.3318  164.6980 N.ar    1  UNL1       -0.2096
      9 N         141.2586  143.4232  164.4099 N.ar    1  UNL1       -0.1489
     10 C         140.8126  140.3826  165.8333 C.ar    1  UNL1        0.0223
     11 C         139.8055  139.8302  164.8686 C.ar    1  UNL1        0.0017
     12 C         138.5263  139.2355  165.3784 C.ar    1  UNL1        0.0032
     13 C         138.2541  139.1930  166.8529 C.ar    1  UNL1        0.0372
     14 C         139.2612  139.7454  167.8176 C.ar    1  UNL1        0.1469
     15 C         140.5404  140.3402  167.3078 C.ar    1  UNL1        0.0387
     16 O         138.9891  139.7030  169.2921 O.3     1  UNL1       -0.4045
     17 C         139.8852  140.4415  170.2417 C.3     1  UNL1        0.5753
     18 F         140.7813  141.1800  171.1913 F       1  UNL1       -0.1328
     19 F         140.7734  139.2367  170.3404 F       1  UNL1       -0.1328
     20 F         138.9969  141.6462  170.1430 F       1  UNL1       -0.1328
     21 N         140.7274  145.7877  163.4735 N.pl3   1  UNL1       -0.3168
     22 H         140.7483  146.6213  163.9968 H       1  UNL1        0.1482
     23 C         139.7077  145.6090  162.3881 C.3     1  UNL1        0.0883
     24 C         137.6296  140.1304  161.0967 C.3     1  UNL1        0.0896
     25 N         138.1491  141.5001  161.4196 N.3     1  UNL1       -0.2715
     26 C         139.2146  142.1189  160.5642 C.3     1  UNL1        0.0722
     27 C         139.7342  143.4885  160.8870 C.3     1  UNL1        0.0191
     28 C         139.1882  144.2393  162.0652 C.3     1  UNL1        0.0223
     29 C         138.1226  143.6205  162.9206 C.3     1  UNL1        0.0191
     30 C         137.6031  142.2509  162.5978 C.3     1  UNL1        0.0722
@<TRIPOS>BOND
     1    24    25    1
     2    25    26    1
     3    26    27    1
     4    27    28    1
     5    28    23    1
     6    23    21    1
     7    21     1    1
     8     1     2   ar
     9     2     3   ar
    10     3     4   ar
    11     4     5   ar
    12     5     6   ar
    13     6     7   ar
    14     7    10    1
    15    10    11   ar
    16    11    12   ar
    17    12    13   ar
    18    13    14   ar
    19    14    16    1
    20    16    17    1
    21    17    18    1
    22    17    19    1
    23    17    20    1
    24    14    15   ar
    25     7     8   ar
    26     8     9   ar
    27    28    29    1
    28    29    30    1
    29    30    25    1
    30     9     1   ar
    31     8     4   ar
    32    15    10   ar
    33    21    22    1
@<TRIPOS>MOLECULE
*****
 30 33 0 0 0
SMALL
GASTEIGER

@<TRIPOS>ATOM
      1 C         139.0833  143.9654  163.4629 C.ar    1  UNL1        0.1488
      2 C         138.0198  143.4528  162.5377 C.ar    1  UNL1        0.0390
      3 C         137.5328  142.0397  162.6646 C.ar    1  UNL1        0.0417
      4 C         138.1094  141.1393  163.7166 C.ar    1  UNL1        0.1640
      5 N         137.8299  139.7105  164.0780 N.ar    1  UNL1       -0.2234
      6 C         138.7207  139.3402  165.2266 C.ar    1  UNL1        0.1197
      7 C         139.5507  140.5400  165.5750 C.ar    1  UNL1        0.1037
      8 N         139.1729  141.6519  164.6418 N.ar    1  UNL1       -0.2096
      9 N         139.6599  143.0650  164.5150 N.ar    1  UNL1       -0.1489
     10 C         140.5782  140.6148  166.6653 C.ar    1  UNL1        0.0223
     11 C         141.6349  139.5557  166.7741 C.ar    1  UNL1        0.0017
     12 C         142.6623  139.6306  167.8643 C.ar    1  UNL1        0.0032
     13 C         142.6333  140.7644  168.8458 C.ar    1  UNL1        0.0372
     14 C         141.5766  141.8235  168.7371 C.ar    1  UNL1        0.1469
     15 C         140.5491  141.7487  167.6468 C.ar    1  UNL1        0.0387
     16 O         141.5475  142.9575  169.7187 O.3     1  UNL1       -0.4045
     17 C         140.2919  143.2554  170.4834 C.3     1  UNL1        0.5753
     18 F         139.0363  143.5533  171.2482 F       1  UNL1       -0.1328
     19 F         140.2484  141.8354  170.9650 F       1  UNL1       -0.1328
     20 F         140.3355  144.6754  170.0019 F       1  UNL1       -0.1328
     21 N         139.5704  145.3785  163.3361 N.pl3   1  UNL1       -0.3168
     22 H         139.0636  146.1130  163.7520 H       1  UNL1        0.1482
     23 C         140.8295  145.6725  162.5757 C.3     1  UNL1        0.0883
     24 C         145.5437  141.9900  163.0402 C.3     1  UNL1        0.0896
     25 N         144.3651  142.9106  162.9241 N.3     1  UNL1       -0.2715
     26 C         144.0686  143.8913  164.0197 C.3     1  UNL1        0.0722
     27 C         142.8901  144.8119  163.9036 C.3     1  UNL1        0.0191
     28 C         142.0081  144.7518  162.6919 C.3     1  UNL1        0.0223
     29 C         142.3045  143.7712  161.5962 C.3     1  UNL1        0.0191
     30 C         143.4831  142.8506  161.7123 C.3     1  UNL1        0.0722
@<TRIPOS>BOND
     1    24    25    1
     2    25    26    1
     3    26    27    1
     4    27    28    1
     5    28    23    1
     6    23    21    1
     7    21     1    1
     8     1     2   ar
     9     2     3   ar
    10     3     4   ar
    11     4     5   ar
    12     5     6   ar
    13     6     7   ar
    14     7    10    1
    15    10    11   ar
    16    11    12   ar
    17    12    13   ar
    18    13    14   ar
    19    14    16    1
    20    16    17    1
    21    17    18    1
    22    17    19    1
    23    17    20    1
    24    14    15   ar
    25     7     8   ar
    26     8     9   ar
    27    28    29    1
    28    29    30    1
    29    30    25    1
    30     9     1   ar
    31     8     4   ar
    32    15    10   ar
    33    21    22    1
@<TRIPOS>MOLECULE
*****
 30 33 0 0 0
SMALL
GASTEIGER

@<TRIPOS>ATOM
      1 C         142.0667  139.2591  164.6580 C.ar    1  UNL1        0.1488
      2 C         143.4023  138.6869  165.0304 C.ar    1  UNL1        0.0390
      3 C         144.6608  139.3389  164.5396 C.ar    1  UNL1        0.0417
      4 C         144.5837  140.5632  163.6764 C.ar    1  UNL1        0.1640
      5 N         145.6453  141.4167  163.0479 N.ar    1  UNL1       -0.2234
      6 C         144.9657  142.5164  162.2871 C.ar    1  UNL1        0.1197
      7 C         143.4842  142.3426  162.4454 C.ar    1  UNL1        0.1037
      8 N         143.2482  141.1355  163.3040 N.ar    1  UNL1       -0.2096
      9 N         141.9897  140.4834  163.7948 N.ar    1  UNL1       -0.1489
     10 C         142.4247  143.2216  161.8497 C.ar    1  UNL1        0.0223
     11 C         142.3821  143.4452  160.3670 C.ar    1  UNL1        0.0017
     12 C         141.3226  144.3242  159.7713 C.ar    1  UNL1        0.0032
     13 C         140.3058  144.9796  160.6581 C.ar    1  UNL1        0.0372
     14 C         140.3485  144.7560  162.1407 C.ar    1  UNL1        0.1469
     15 C         141.4079  143.8770  162.7365 C.ar    1  UNL1        0.0387
     16 O         139.3316  145.4114  163.0277 O.3     1  UNL1       -0.4045
     17 C         138.4797  144.5760  163.9368 C.3     1  UNL1        0.5753
     18 F         137.6278  143.7406  164.8458 F       1  UNL1       -0.1328
     19 F         139.1594  145.1807  165.1294 F       1  UNL1       -0.1328
     20 F         137.8000  143.9713  162.7441 F       1  UNL1       -0.1328
     21 N         140.8081  138.6071  165.1489 N.pl3   1  UNL1       -0.3168
     22 H         140.7355  137.6254  165.1628 H       1  UNL1        0.1482
     23 C         139.6603  139.4508  165.6184 C.3     1  UNL1        0.0883
     24 C         140.5315  143.6151  169.8492 C.3     1  UNL1        0.0896
     25 N         140.3137  142.5741  168.7915 N.3     1  UNL1       -0.2715
     26 C         140.1185  141.1387  169.1809 C.3     1  UNL1        0.0722
     27 C         139.9006  140.0976  168.1232 C.3     1  UNL1        0.0191
     28 C         139.8781  140.4919  166.6762 C.3     1  UNL1        0.0223
     29 C         140.0733  141.9273  166.2868 C.3     1  UNL1        0.0191
     30 C         140.2912  142.9683  167.3444 C.3     1  UNL1        0.0722
@<TRIPOS>BOND
     1    24    25    1
     2    25    26    1
     3    26    27    1
     4    27    28    1
     5    28    23    1
     6    23    21    1
     7    21     1    1
     8     1     2   ar
     9     2     3   ar
    10     3     4   ar
    11     4     5   ar
    12     5     6   ar
    13     6     7   ar
    14     7    10    1
    15    10    11   ar
    16    11    12   ar
    17    12    13   ar
    18    13    14   ar
    19    14    16    1
    20    16    17    1
    21    17    18    1
    22    17    19    1
    23    17    20    1
    24    14    15   ar
    25     7     8   ar
    26     8     9   ar
    27    28    29    1
    28    29    30    1
    29    30    25    1
    30     9     1   ar
    31     8     4   ar
    32    15    10   ar
    33    21    22    1
