@<TRIPOS>MOLECULE
*****
 36 40 0 0 0
SMALL
GASTEIGER

@<TRIPOS>ATOM
      1 N         138.6186  139.1764  165.8092 N.3     1  UNL1       -0.2689
      2 C         138.0614  140.3412  165.0458 C.3     1  UNL1        0.0724
      3 C         138.1569  140.3717  163.5492 C.3     1  UNL1        0.0175
      4 C         138.8095  139.2375  162.8159 C.3     1  UNL1        0.0060
      5 C         139.3666  138.0727  163.5793 C.3     1  UNL1        0.0175
      6 C         139.2711  138.0421  165.0760 C.3     1  UNL1        0.0724
      7 C         138.2524  140.4023  162.0525 C.3     1  UNL1        0.0217
      8 C         138.3478  140.4328  160.5558 C.3     1  UNL1        0.0938
      9 N         139.0004  139.2986  159.8226 N.am    1  UNL1       -0.2748
     10 C         139.0959  139.3292  158.3259 C.2     1  UNL1        0.2668
     11 O         139.7485  138.1949  157.5927 O.2     1  UNL1       -0.2683
     12 C         139.5575  138.1338  160.5860 C.3     1  UNL1        0.0938
     13 C         139.4621  138.1032  162.0827 C.3     1  UNL1        0.0217
     14 C         138.5388  140.4940  157.5625 C.ar    1  UNL1        0.1348
     15 C         139.4124  141.6724  157.2494 C.ar    1  UNL1        0.0250
     16 C         138.8553  142.8372  156.4860 C.ar    1  UNL1        0.0174
     17 C         137.4245  142.8236  156.0357 C.ar    1  UNL1        0.0610
     18 N         136.8674  143.9884  155.2723 N.pl3   1  UNL1       -0.3558
     19 C         136.5509  141.6452  156.3488 C.ar    1  UNL1        0.1130
     20 N         137.1080  140.4803  157.1123 N.ar    1  UNL1       -0.2380
     21 H         137.4408  144.7618  155.0668 H       1  UNL1        0.1424
     22 H         135.9283  143.9795  154.9767 H       1  UNL1        0.1424
     23 C         138.5231  139.1458  167.3059 C.3     1  UNL1        0.1022
     24 C         142.5082  141.0383  164.6944 C.3     1  UNL1        0.0497
     25 C         142.4123  141.4879  166.1222 C.3     1  UNL1        0.1927
     26 C         143.6581  142.2582  165.7986 C.3     1  UNL1        0.0497
     27 O         141.1866  140.6235  166.1473 O.3     1  UNL1       -0.4773
     28 C         140.5937  140.7000  167.5230 C.ar    1  UNL1        0.1369
     29 C         139.3823  140.0573  168.1310 C.ar    1  UNL1        0.0277
     30 C         139.0302  140.3262  169.5641 C.ar    1  UNL1        0.0001
     31 C         139.8895  141.2378  170.3892 C.ar    1  UNL1       -0.0002
     32 C         141.1008  141.8805  169.7812 C.ar    1  UNL1        0.0041
     33 C         141.4529  141.6116  168.3481 C.ar    1  UNL1        0.0749
     34 C         142.5769  142.0985  167.4823 C.3     1  UNL1        0.3176
     35 F         143.7882  142.7411  166.8744 F       1  UNL1       -0.1957
     36 F         142.9947  142.8435  168.7154 F       1  UNL1       -0.1957
@<TRIPOS>BOND
     1    24    25    1
     2    25    26    1
     3    25    27    1
     4    27    28    1
     5    28    29   ar
     6    29    23    1
     7    23     1    1
     8     1     2    1
     9     2     3    1
    10     3     4    1
    11     4     5    1
    12     5     6    1
    13     4     7    1
    14     7     8    1
    15     8     9    1
    16     9    10   am
    17    10    11    2
    18    10    14    1
    19    14    15   ar
    20    15    16   ar
    21    16    17   ar
    22    17    18    1
    23    17    19   ar
    24    19    20   ar
    25     9    12    1
    26    12    13    1
    27    29    30   ar
    28    30    31   ar
    29    31    32   ar
    30    32    33   ar
    31    33    34    1
    32    34    35    1
    33    34    36    1
    34    34    25    1
    35    33    28   ar
    36     6     1    1
    37    20    14   ar
    38    13     4    1
    39    18    21    1
    40    18    22    1
@<TRIPOS>MOLECULE
*****
 36 40 0 0 0
SMALL
GASTEIGER

@<TRIPOS>ATOM
      1 N         139.3357  139.4952  161.0996 N.3     1  UNL1       -0.2689
      2 C         140.3410  140.4089  161.7355 C.3     1  UNL1        0.0724
      3 C         140.3702  140.5703  163.2264 C.3     1  UNL1        0.0175
      4 C         139.3939  139.8181  164.0815 C.3     1  UNL1        0.0060
      5 C         138.3886  138.9044  163.4456 C.3     1  UNL1        0.0175
      6 C         138.3595  138.7429  161.9546 C.3     1  UNL1        0.0724
      7 C         140.3993  140.7318  164.7175 C.3     1  UNL1        0.0217
      8 C         140.4284  140.8933  166.2085 C.3     1  UNL1        0.0938
      9 N         139.4522  140.1410  167.0635 N.am    1  UNL1       -0.2748
     10 C         139.4814  140.3025  168.5546 C.2     1  UNL1        0.2668
     11 O         138.5051  139.5503  169.4096 O.2     1  UNL1       -0.2683
     12 C         138.4469  139.2273  166.4276 C.3     1  UNL1        0.0938
     13 C         138.4177  139.0658  164.9366 C.3     1  UNL1        0.0217
     14 C         140.4867  141.2162  169.1905 C.ar    1  UNL1        0.1348
     15 C         140.1753  142.6741  169.3573 C.ar    1  UNL1        0.0250
     16 C         141.1806  143.5878  169.9932 C.ar    1  UNL1        0.0174
     17 C         142.4974  143.0437  170.4623 C.ar    1  UNL1        0.0610
     18 N         143.5028  143.9574  171.0982 N.pl3   1  UNL1       -0.3558
     19 C         142.8088  141.5858  170.2955 C.ar    1  UNL1        0.1130
     20 N         141.8034  140.6721  169.6596 N.ar    1  UNL1       -0.2380
     21 H         143.2984  144.9142  171.2077 H       1  UNL1        0.1424
     22 H         144.3670  143.6003  171.4061 H       1  UNL1        0.1424
     23 C         139.3066  139.3337  159.6085 C.3     1  UNL1        0.1022
     24 C         138.0198  137.7609  154.9019 C.3     1  UNL1        0.0497
     25 C         139.4170  137.4185  155.3269 C.3     1  UNL1        0.1927
     26 C         139.5080  136.7896  153.9681 C.3     1  UNL1        0.0497
     27 O         139.0340  138.1190  156.5968 O.3     1  UNL1       -0.4773
     28 C         140.2134  138.0780  157.5226 C.ar    1  UNL1        0.1369
     29 C         140.4185  138.6079  158.9109 C.ar    1  UNL1        0.0277
     30 C         141.7356  138.4120  159.6014 C.ar    1  UNL1        0.0001
     31 C         142.8476  137.6862  158.9037 C.ar    1  UNL1       -0.0002
     32 C         142.6425  137.1564  157.5155 C.ar    1  UNL1        0.0041
     33 C         141.3254  137.3523  156.8249 C.ar    1  UNL1        0.0749
     34 C         140.8332  136.9447  155.4679 C.3     1  UNL1        0.3176
     35 F         140.6281  136.4149  154.0797 F       1  UNL1       -0.1957
     36 F         142.2065  136.3601  155.3187 F       1  UNL1       -0.1957
@<TRIPOS>BOND
     1    24    25    1
     2    25    26    1
     3    25    27    1
     4    27    28    1
     5    28    29   ar
     6    29    23    1
     7    23     1    1
     8     1     2    1
     9     2     3    1
    10     3     4    1
    11     4     5    1
    12     5     6    1
    13     4     7    1
    14     7     8    1
    15     8     9    1
    16     9    10   am
    17    10    11    2
    18    10    14    1
    19    14    15   ar
    20    15    16   ar
    21    16    17   ar
    22    17    18    1
    23    17    19   ar
    24    19    20   ar
    25     9    12    1
    26    12    13    1
    27    29    30   ar
    28    30    31   ar
    29    31    32   ar
    30    32    33   ar
    31    33    34    1
    32    34    35    1
    33    34    36    1
    34    34    25    1
    35    33    28   ar
    36     6     1    1
    37    20    14   ar
    38    13     4    1
    39    18    21    1
    40    18    22    1
@<TRIPOS>MOLECULE
*****
 36 40 0 0 0
SMALL
GASTEIGER

@<TRIPOS>ATOM
      1 N         142.7202  138.8412  160.7333 N.3     1  UNL1       -0.2689
      2 C         143.4735  139.8002  161.6066 C.3     1  UNL1        0.0724
      3 C         143.0087  140.0618  163.0085 C.3     1  UNL1        0.0175
      4 C         141.7904  139.3643  163.5372 C.3     1  UNL1        0.0060
      5 C         141.0371  138.4053  162.6639 C.3     1  UNL1        0.0175
      6 C         141.5019  138.1437  161.2620 C.3     1  UNL1        0.0724
      7 C         142.5438  140.3234  164.4105 C.3     1  UNL1        0.0217
      8 C         142.0790  140.5850  165.8125 C.3     1  UNL1        0.0938
      9 N         140.8607  139.8875  166.3411 N.am    1  UNL1       -0.2748
     10 C         140.3959  140.1491  167.7431 C.2     1  UNL1        0.2668
     11 O         139.1777  139.4517  168.2718 O.2     1  UNL1       -0.2683
     12 C         140.1074  138.9285  165.4678 C.3     1  UNL1        0.0938
     13 C         140.5722  138.6669  164.0658 C.3     1  UNL1        0.0217
     14 C         141.1493  141.1081  168.6164 C.ar    1  UNL1        0.1348
     15 C         140.5245  142.4139  169.0097 C.ar    1  UNL1        0.0250
     16 C         141.2779  143.3729  169.8830 C.ar    1  UNL1        0.0174
     17 C         142.6561  143.0262  170.3630 C.ar    1  UNL1        0.0610
     18 N         143.4095  143.9852  171.2363 N.pl3   1  UNL1       -0.3558
     19 C         143.2809  141.7205  169.9697 C.ar    1  UNL1        0.1130
     20 N         142.5274  140.7614  169.0964 N.ar    1  UNL1       -0.2380
     21 H         142.9994  144.8422  171.4944 H       1  UNL1        0.1424
     22 H         144.3140  143.7577  171.5513 H       1  UNL1        0.1424
     23 C         143.1850  138.5796  159.3313 C.3     1  UNL1        0.1022
     24 C         143.6210  134.0702  156.9319 C.3     1  UNL1        0.0497
     25 C         142.5325  134.9631  156.4145 C.3     1  UNL1        0.1927
     26 C         142.2796  133.8367  155.4568 C.3     1  UNL1        0.0497
     27 O         143.0129  135.9029  157.4803 O.3     1  UNL1       -0.4773
     28 C         142.1684  137.1412  157.4214 C.ar    1  UNL1        0.1369
     29 C         142.1827  138.4051  158.2291 C.ar    1  UNL1        0.0277
     30 C         141.1946  139.4946  157.9345 C.ar    1  UNL1        0.0001
     31 C         140.1923  139.3201  156.8322 C.ar    1  UNL1       -0.0002
     32 C         140.1781  138.0562  156.0246 C.ar    1  UNL1        0.0041
     33 C         141.1661  136.9667  156.3192 C.ar    1  UNL1        0.0749
     34 C         141.3912  135.6206  155.6969 C.3     1  UNL1        0.3176
     35 F         141.3769  134.3567  154.8893 F       1  UNL1       -0.1957
     36 F         140.2468  136.0138  154.8104 F       1  UNL1       -0.1957
@<TRIPOS>BOND
     1    24    25    1
     2    25    26    1
     3    25    27    1
     4    27    28    1
     5    28    29   ar
     6    29    23    1
     7    23     1    1
     8     1     2    1
     9     2     3    1
    10     3     4    1
    11     4     5    1
    12     5     6    1
    13     4     7    1
    14     7     8    1
    15     8     9    1
    16     9    10   am
    17    10    11    2
    18    10    14    1
    19    14    15   ar
    20    15    16   ar
    21    16    17   ar
    22    17    18    1
    23    17    19   ar
    24    19    20   ar
    25     9    12    1
    26    12    13    1
    27    29    30   ar
    28    30    31   ar
    29    31    32   ar
    30    32    33   ar
    31    33    34    1
    32    34    35    1
    33    34    36    1
    34    34    25    1
    35    33    28   ar
    36     6     1    1
    37    20    14   ar
    38    13     4    1
    39    18    21    1
    40    18    22    1
@<TRIPOS>MOLECULE
*****
 36 40 0 0 0
SMALL
GASTEIGER

@<TRIPOS>ATOM
      1 N         138.6091  139.1683  165.5450 N.3     1  UNL1       -0.2689
      2 C         139.2596  138.0675  164.7607 C.3     1  UNL1        0.0724
      3 C         139.3520  138.1647  163.2667 C.3     1  UNL1        0.0175
      4 C         138.7938  139.3625  162.5571 C.3     1  UNL1        0.0060
      5 C         138.1433  140.4632  163.3414 C.3     1  UNL1        0.0175
      6 C         138.0510  140.3661  164.8353 C.3     1  UNL1        0.0724
      7 C         139.4444  138.2618  161.7727 C.3     1  UNL1        0.0217
      8 C         139.5368  138.3589  160.2787 C.3     1  UNL1        0.0938
      9 N         138.9786  139.5568  159.5690 N.am    1  UNL1       -0.2748
     10 C         139.0710  139.6539  158.0750 C.2     1  UNL1        0.2668
     11 O         138.5129  140.8517  157.3653 O.2     1  UNL1       -0.2683
     12 C         138.3281  140.6575  160.3534 C.3     1  UNL1        0.0938
     13 C         138.2357  140.5604  161.8474 C.3     1  UNL1        0.0217
     14 C         139.7215  138.5532  157.2907 C.ar    1  UNL1        0.1348
     15 C         141.1669  138.2230  157.5185 C.ar    1  UNL1        0.0250
     16 C         141.8174  137.1223  156.7342 C.ar    1  UNL1        0.0174
     17 C         141.0226  136.3517  155.7220 C.ar    1  UNL1        0.0610
     18 N         141.6731  135.2509  154.9377 N.pl3   1  UNL1       -0.3558
     19 C         139.5772  136.6818  155.4942 C.ar    1  UNL1        0.1130
     20 N         138.9267  137.7826  156.2785 N.ar    1  UNL1       -0.2380
     21 H         142.6217  135.0342  155.0872 H       1  UNL1        0.1424
     22 H         141.1514  134.7452  154.2734 H       1  UNL1        0.1424
     23 C         138.5167  139.0712  167.0390 C.3     1  UNL1        0.1022
     24 C         142.5417  141.0490  164.5551 C.3     1  UNL1        0.0497
     25 C         142.4124  141.4661  165.9902 C.3     1  UNL1        0.1927
     26 C         143.6589  142.2522  165.7102 C.3     1  UNL1        0.0497
     27 O         141.1929  140.5929  165.9702 O.3     1  UNL1       -0.4773
     28 C         140.5706  140.6347  167.3343 C.ar    1  UNL1        0.1369
     29 C         139.3515  139.9701  167.9021 C.ar    1  UNL1        0.0277
     30 C         138.9672  140.2047  169.3330 C.ar    1  UNL1        0.0001
     31 C         139.8021  141.1037  170.1960 C.ar    1  UNL1       -0.0002
     32 C         141.0211  141.7682  169.6282 C.ar    1  UNL1        0.0041
     33 C         141.4053  141.5337  168.1974 C.ar    1  UNL1        0.0749
     34 C         142.5437  142.0475  167.3666 C.3     1  UNL1        0.3176
     35 F         143.7627  142.7120  166.7988 F       1  UNL1       -0.1957
     36 F         142.9298  142.7679  168.6244 F       1  UNL1       -0.1957
@<TRIPOS>BOND
     1    24    25    1
     2    25    26    1
     3    25    27    1
     4    27    28    1
     5    28    29   ar
     6    29    23    1
     7    23     1    1
     8     1     2    1
     9     2     3    1
    10     3     4    1
    11     4     5    1
    12     5     6    1
    13     4     7    1
    14     7     8    1
    15     8     9    1
    16     9    10   am
    17    10    11    2
    18    10    14    1
    19    14    15   ar
    20    15    16   ar
    21    16    17   ar
    22    17    18    1
    23    17    19   ar
    24    19    20   ar
    25     9    12    1
    26    12    13    1
    27    29    30   ar
    28    30    31   ar
    29    31    32   ar
    30    32    33   ar
    31    33    34    1
    32    34    35    1
    33    34    36    1
    34    34    25    1
    35    33    28   ar
    36     6     1    1
    37    20    14   ar
    38    13     4    1
    39    18    21    1
    40    18    22    1
@<TRIPOS>MOLECULE
*****
 36 40 0 0 0
SMALL
GASTEIGER

@<TRIPOS>ATOM
      1 N         139.8990  138.8670  160.9672 N.3     1  UNL1       -0.2689
      2 C         140.9024  139.7691  161.6226 C.3     1  UNL1        0.0724
      3 C         140.8306  140.0231  163.0992 C.3     1  UNL1        0.0175
      4 C         139.7556  139.3750  163.9204 C.3     1  UNL1        0.0060
      5 C         138.7523  138.4730  163.2650 C.3     1  UNL1        0.0175
      6 C         138.8240  138.2190  161.7884 C.3     1  UNL1        0.0724
      7 C         140.7590  140.2772  164.5758 C.3     1  UNL1        0.0217
      8 C         140.6872  140.5312  166.0524 C.3     1  UNL1        0.0938
      9 N         139.6122  139.8831  166.8736 N.am    1  UNL1       -0.2748
     10 C         139.5405  140.1372  168.3502 C.2     1  UNL1        0.2668
     11 O         138.4654  139.4892  169.1714 O.2     1  UNL1       -0.2683
     12 C         138.6089  138.9811  166.2182 C.3     1  UNL1        0.0938
     13 C         138.6805  138.7270  164.7415 C.3     1  UNL1        0.0217
     14 C         140.5438  141.0393  169.0056 C.ar    1  UNL1        0.1348
     15 C         140.1994  142.4742  169.2745 C.ar    1  UNL1        0.0250
     16 C         141.2027  143.3763  169.9298 C.ar    1  UNL1        0.0174
     17 C         142.5506  142.8434  170.3164 C.ar    1  UNL1        0.0610
     18 N         143.5539  143.7455  170.9718 N.pl3   1  UNL1       -0.3558
     19 C         142.8950  141.4085  170.0475 C.ar    1  UNL1        0.1130
     20 N         141.8916  140.5064  169.3921 N.ar    1  UNL1       -0.2380
     21 H         143.3278  144.6873  171.1482 H       1  UNL1        0.1424
     22 H         144.4385  143.3957  171.2255 H       1  UNL1        0.1424
     23 C         139.9707  138.6129  159.4906 C.3     1  UNL1        0.1022
     24 C         142.7672  135.3628  156.6802 C.3     1  UNL1        0.0497
     25 C         143.1298  136.8102  156.5270 C.3     1  UNL1        0.1927
     26 C         144.1592  136.2885  155.5688 C.3     1  UNL1        0.0497
     27 O         142.0246  137.0293  157.5173 O.3     1  UNL1       -0.4773
     28 C         141.9195  138.5031  157.7758 C.ar    1  UNL1        0.1369
     29 C         141.0108  139.3046  158.6602 C.ar    1  UNL1        0.0277
     30 C         141.1424  140.7979  158.7141 C.ar    1  UNL1        0.0001
     31 C         142.1826  141.4896  157.8836 C.ar    1  UNL1       -0.0002
     32 C         143.0912  140.6881  156.9993 C.ar    1  UNL1        0.0041
     33 C         142.9596  139.1948  156.9454 C.ar    1  UNL1        0.0749
     34 C         143.7076  138.1485  156.1736 C.3     1  UNL1        0.3176
     35 F         144.6162  137.3470  155.2893 F       1  UNL1       -0.1957
     36 F         144.4754  139.3193  155.6353 F       1  UNL1       -0.1957
@<TRIPOS>BOND
     1    24    25    1
     2    25    26    1
     3    25    27    1
     4    27    28    1
     5    28    29   ar
     6    29    23    1
     7    23     1    1
     8     1     2    1
     9     2     3    1
    10     3     4    1
    11     4     5    1
    12     5     6    1
    13     4     7    1
    14     7     8    1
    15     8     9    1
    16     9    10   am
    17    10    11    2
    18    10    14    1
    19    14    15   ar
    20    15    16   ar
    21    16    17   ar
    22    17    18    1
    23    17    19   ar
    24    19    20   ar
    25     9    12    1
    26    12    13    1
    27    29    30   ar
    28    30    31   ar
    29    31    32   ar
    30    32    33   ar
    31    33    34    1
    32    34    35    1
    33    34    36    1
    34    34    25    1
    35    33    28   ar
    36     6     1    1
    37    20    14   ar
    38    13     4    1
    39    18    21    1
    40    18    22    1
@<TRIPOS>MOLECULE
*****
 36 40 0 0 0
SMALL
GASTEIGER

@<TRIPOS>ATOM
      1 N         142.2361  137.7055  157.9856 N.3     1  UNL1       -0.2689
      2 C         142.6364  137.4831  159.4139 C.3     1  UNL1        0.0724
      3 C         141.8271  138.0882  160.5225 C.3     1  UNL1        0.0175
      4 C         140.6176  138.9157  160.2027 C.3     1  UNL1        0.0060
      5 C         140.2173  139.1381  158.7744 C.3     1  UNL1        0.0175
      6 C         141.0265  138.5330  157.6658 C.3     1  UNL1        0.0724
      7 C         141.0179  138.6933  161.6312 C.3     1  UNL1        0.0217
      8 C         140.2087  139.2984  162.7397 C.3     1  UNL1        0.0938
      9 N         138.9991  140.1259  162.4199 N.am    1  UNL1       -0.2748
     10 C         138.1899  140.7310  163.5286 C.2     1  UNL1        0.2668
     11 O         136.9804  141.5585  163.2088 O.2     1  UNL1       -0.2683
     12 C         138.5988  140.3483  160.9916 C.3     1  UNL1        0.0938
     13 C         139.4081  139.7432  159.8829 C.3     1  UNL1        0.0217
     14 C         138.5902  140.5086  164.9569 C.ar    1  UNL1        0.1348
     15 C         138.0390  139.3387  165.7169 C.ar    1  UNL1        0.0250
     16 C         138.4393  139.1163  167.1452 C.ar    1  UNL1        0.0174
     17 C         139.3909  140.0638  167.8137 C.ar    1  UNL1        0.0610
     18 N         139.7912  139.8414  169.2421 N.pl3   1  UNL1       -0.3558
     19 C         139.9421  141.2337  167.0538 C.ar    1  UNL1        0.1130
     20 N         139.5417  141.4561  165.6254 N.ar    1  UNL1       -0.2380
     21 H         139.4294  139.0735  169.7408 H       1  UNL1        0.1424
     22 H         140.4157  140.4632  169.6808 H       1  UNL1        0.1424
     23 C         143.0453  137.1004  156.8769 C.3     1  UNL1        0.1022
     24 C         145.2228  132.6642  158.2409 C.3     1  UNL1        0.0497
     25 C         144.1818  132.5576  157.1662 C.3     1  UNL1        0.1927
     26 C         144.5056  131.0938  157.2164 C.3     1  UNL1        0.0497
     27 O         144.0756  134.0437  157.3406 O.3     1  UNL1       -0.4773
     28 C         143.0367  134.5495  156.3841 C.ar    1  UNL1        0.1369
     29 C         142.5094  135.9271  156.1114 C.ar    1  UNL1        0.0277
     30 C         141.4463  136.1312  155.0731 C.ar    1  UNL1        0.0001
     31 C         140.9104  134.9578  154.3076 C.ar    1  UNL1       -0.0002
     32 C         141.4377  133.5803  154.5804 C.ar    1  UNL1        0.0041
     33 C         142.5008  133.3761  155.6186 C.ar    1  UNL1        0.0749
     34 C         143.2086  132.1451  156.1020 C.3     1  UNL1        0.3176
     35 F         143.7359  130.7676  156.3747 F       1  UNL1       -0.1957
     36 F         142.3456  131.4445  155.0948 F       1  UNL1       -0.1957
@<TRIPOS>BOND
     1    24    25    1
     2    25    26    1
     3    25    27    1
     4    27    28    1
     5    28    29   ar
     6    29    23    1
     7    23     1    1
     8     1     2    1
     9     2     3    1
    10     3     4    1
    11     4     5    1
    12     5     6    1
    13     4     7    1
    14     7     8    1
    15     8     9    1
    16     9    10   am
    17    10    11    2
    18    10    14    1
    19    14    15   ar
    20    15    16   ar
    21    16    17   ar
    22    17    18    1
    23    17    19   ar
    24    19    20   ar
    25     9    12    1
    26    12    13    1
    27    29    30   ar
    28    30    31   ar
    29    31    32   ar
    30    32    33   ar
    31    33    34    1
    32    34    35    1
    33    34    36    1
    34    34    25    1
    35    33    28   ar
    36     6     1    1
    37    20    14   ar
    38    13     4    1
    39    18    21    1
    40    18    22    1
@<TRIPOS>MOLECULE
*****
 36 40 0 0 0
SMALL
GASTEIGER

@<TRIPOS>ATOM
      1 N         140.8163  138.9965  160.4366 N.3     1  UNL1       -0.2689
      2 C         140.0461  139.9584  161.2919 C.3     1  UNL1        0.0724
      3 C         140.3320  140.0501  162.7615 C.3     1  UNL1        0.0175
      4 C         141.3881  139.1800  163.3758 C.3     1  UNL1        0.0060
      5 C         142.1584  138.2181  162.5206 C.3     1  UNL1        0.0175
      6 C         141.8724  138.1263  161.0510 C.3     1  UNL1        0.0724
      7 C         140.6179  140.1419  164.2312 C.3     1  UNL1        0.0217
      8 C         140.9038  140.2337  165.7008 C.3     1  UNL1        0.0938
      9 N         141.9599  139.3635  166.3151 N.am    1  UNL1       -0.2748
     10 C         142.2458  139.4553  167.7848 C.2     1  UNL1        0.2668
     11 O         143.3019  138.5852  168.3992 O.2     1  UNL1       -0.2683
     12 C         142.7301  138.4016  165.4599 C.3     1  UNL1        0.0938
     13 C         142.4443  138.3099  163.9902 C.3     1  UNL1        0.0217
     14 C         141.4756  140.4172  168.6401 C.ar    1  UNL1        0.1348
     15 C         142.0129  141.7953  168.8894 C.ar    1  UNL1        0.0250
     16 C         141.2426  142.7572  169.7446 C.ar    1  UNL1        0.0174
     17 C         139.9351  142.3410  170.3506 C.ar    1  UNL1        0.0610
     18 N         139.1648  143.3029  171.2058 N.pl3   1  UNL1       -0.3558
     19 C         139.3978  140.9629  170.1012 C.ar    1  UNL1        0.1130
     20 N         140.1681  140.0010  169.2460 N.ar    1  UNL1       -0.2380
     21 H         139.5175  144.2074  171.3694 H       1  UNL1        0.1424
     22 H         138.3067  143.0298  171.6035 H       1  UNL1        0.1424
     23 C         140.5304  138.9047  158.9669 C.3     1  UNL1        0.1022
     24 C         142.7064  134.7902  156.8180 C.3     1  UNL1        0.0497
     25 C         143.2400  136.1106  156.3470 C.3     1  UNL1        0.1927
     26 C         144.1317  135.2654  155.4866 C.3     1  UNL1        0.0497
     27 O         142.2367  136.6799  157.3059 O.3     1  UNL1       -0.4773
     28 C         142.3366  138.1754  157.2477 C.ar    1  UNL1        0.1369
     29 C         141.5954  139.2598  157.9721 C.ar    1  UNL1        0.0277
     30 C         141.9192  140.6992  157.7016 C.ar    1  UNL1        0.0001
     31 C         142.9842  141.0543  156.7067 C.ar    1  UNL1       -0.0002
     32 C         143.7254  139.9699  155.9824 C.ar    1  UNL1        0.0041
     33 C         143.4016  138.5304  156.2529 C.ar    1  UNL1        0.0749
     34 C         143.9599  137.2543  155.6962 C.3     1  UNL1        0.3176
     35 F         144.7011  136.1700  154.9718 F       1  UNL1       -0.1957
     36 F         144.8348  138.1714  154.8939 F       1  UNL1       -0.1957
@<TRIPOS>BOND
     1    24    25    1
     2    25    26    1
     3    25    27    1
     4    27    28    1
     5    28    29   ar
     6    29    23    1
     7    23     1    1
     8     1     2    1
     9     2     3    1
    10     3     4    1
    11     4     5    1
    12     5     6    1
    13     4     7    1
    14     7     8    1
    15     8     9    1
    16     9    10   am
    17    10    11    2
    18    10    14    1
    19    14    15   ar
    20    15    16   ar
    21    16    17   ar
    22    17    18    1
    23    17    19   ar
    24    19    20   ar
    25     9    12    1
    26    12    13    1
    27    29    30   ar
    28    30    31   ar
    29    31    32   ar
    30    32    33   ar
    31    33    34    1
    32    34    35    1
    33    34    36    1
    34    34    25    1
    35    33    28   ar
    36     6     1    1
    37    20    14   ar
    38    13     4    1
    39    18    21    1
    40    18    22    1
@<TRIPOS>MOLECULE
*****
 36 40 0 0 0
SMALL
GASTEIGER

@<TRIPOS>ATOM
      1 N         139.8043  139.1323  161.0818 N.3     1  UNL1       -0.2689
      2 C         140.7996  140.0409  161.7405 C.3     1  UNL1        0.0724
      3 C         140.7461  140.2628  163.2230 C.3     1  UNL1        0.0175
      4 C         139.6974  139.5761  164.0468 C.3     1  UNL1        0.0060
      5 C         138.7021  138.6676  163.3882 C.3     1  UNL1        0.0175
      6 C         138.7556  138.4457  161.9057 C.3     1  UNL1        0.0724
      7 C         140.6927  140.4847  164.7056 C.3     1  UNL1        0.0217
      8 C         140.6392  140.7066  166.1881 C.3     1  UNL1        0.0938
      9 N         139.5905  140.0200  167.0119 N.am    1  UNL1       -0.2748
     10 C         139.5370  140.2419  168.4945 C.2     1  UNL1        0.2668
     11 O         138.4883  139.5553  169.3183 O.2     1  UNL1       -0.2683
     12 C         138.5952  139.1114  166.3532 C.3     1  UNL1        0.0938
     13 C         138.6486  138.8895  164.8707 C.3     1  UNL1        0.0217
     14 C         140.5323  141.1505  169.1532 C.ar    1  UNL1        0.1348
     15 C         140.2112  142.6035  169.3420 C.ar    1  UNL1        0.0250
     16 C         141.2065  143.5121  170.0007 C.ar    1  UNL1        0.0174
     17 C         142.5229  142.9676  170.4706 C.ar    1  UNL1        0.0610
     18 N         143.5181  143.8762  171.1293 N.pl3   1  UNL1       -0.3558
     19 C         142.8439  141.5146  170.2818 C.ar    1  UNL1        0.1130
     20 N         141.8486  140.6060  169.6231 N.ar    1  UNL1       -0.2380
     21 H         143.3074  144.8299  171.2532 H       1  UNL1        0.1424
     22 H         144.3821  143.5189  171.4377 H       1  UNL1        0.1424
     23 C         139.8578  138.9104  159.5993 C.3     1  UNL1        0.1022
     24 C         139.1724  137.0278  154.8803 C.3     1  UNL1        0.0497
     25 C         138.6875  138.4330  155.0810 C.3     1  UNL1        0.1927
     26 C         138.2923  138.3355  153.6373 C.3     1  UNL1        0.0497
     27 O         139.1841  138.2368  156.4827 O.3     1  UNL1       -0.4773
     28 C         138.9235  139.5004  157.2478 C.ar    1  UNL1        0.1369
     29 C         139.2001  139.8875  158.6705 C.ar    1  UNL1        0.0277
     30 C         138.8191  141.2517  159.1642 C.ar    1  UNL1        0.0001
     31 C         138.1614  142.2288  158.2353 C.ar    1  UNL1       -0.0002
     32 C         137.8849  141.8417  156.8127 C.ar    1  UNL1        0.0041
     33 C         138.2659  140.4775  156.3190 C.ar    1  UNL1        0.0749
     34 C         138.1200  139.8178  154.9798 C.3     1  UNL1        0.3176
     35 F         137.8435  139.4307  153.5573 F       1  UNL1       -0.1957
     36 F         137.4947  141.1217  154.5812 F       1  UNL1       -0.1957
@<TRIPOS>BOND
     1    24    25    1
     2    25    26    1
     3    25    27    1
     4    27    28    1
     5    28    29   ar
     6    29    23    1
     7    23     1    1
     8     1     2    1
     9     2     3    1
    10     3     4    1
    11     4     5    1
    12     5     6    1
    13     4     7    1
    14     7     8    1
    15     8     9    1
    16     9    10   am
    17    10    11    2
    18    10    14    1
    19    14    15   ar
    20    15    16   ar
    21    16    17   ar
    22    17    18    1
    23    17    19   ar
    24    19    20   ar
    25     9    12    1
    26    12    13    1
    27    29    30   ar
    28    30    31   ar
    29    31    32   ar
    30    32    33   ar
    31    33    34    1
    32    34    35    1
    33    34    36    1
    34    34    25    1
    35    33    28   ar
    36     6     1    1
    37    20    14   ar
    38    13     4    1
    39    18    21    1
    40    18    22    1
@<TRIPOS>MOLECULE
*****
 36 40 0 0 0
SMALL
GASTEIGER

@<TRIPOS>ATOM
      1 N         139.0351  141.7046  160.3470 N.3     1  UNL1       -0.2689
      2 C         138.5787  140.3200  159.9942 C.3     1  UNL1        0.0724
      3 C         139.4599  139.4264  159.1728 C.3     1  UNL1        0.0175
      4 C         140.7976  139.9173  158.7041 C.3     1  UNL1        0.0060
      5 C         141.2540  141.3019  159.0569 C.3     1  UNL1        0.0175
      6 C         140.3728  142.1955  159.8783 C.3     1  UNL1        0.0724
      7 C         140.3411  138.5326  158.3513 C.3     1  UNL1        0.0217
      8 C         141.2223  137.6390  157.5298 C.3     1  UNL1        0.0938
      9 N         142.5600  138.1300  157.0611 N.am    1  UNL1       -0.2748
     10 C         143.4412  137.2363  156.2396 C.2     1  UNL1        0.2668
     11 O         144.7789  137.7272  155.7710 O.2     1  UNL1       -0.2683
     12 C         143.0164  139.5146  157.4139 C.3     1  UNL1        0.0938
     13 C         142.1352  140.4083  158.2354 C.3     1  UNL1        0.0217
     14 C         142.9848  135.8517  155.8868 C.ar    1  UNL1        0.1348
     15 C         142.3345  135.5915  154.5604 C.ar    1  UNL1        0.0250
     16 C         141.8780  134.2069  154.2076 C.ar    1  UNL1        0.0174
     17 C         142.0719  133.0824  155.1813 C.ar    1  UNL1        0.0610
     18 N         141.6155  131.6978  154.8285 N.pl3   1  UNL1       -0.3558
     19 C         142.7222  133.3425  156.5077 C.ar    1  UNL1        0.1130
     20 N         143.1787  134.7272  156.8605 N.ar    1  UNL1       -0.2380
     21 H         141.1887  131.5270  153.9579 H       1  UNL1        0.1424
     22 H         141.7427  130.9597  155.4675 H       1  UNL1        0.1424
     23 C         138.1539  142.5983  161.1685 C.3     1  UNL1        0.1022
     24 C         138.7467  138.5811  164.2978 C.3     1  UNL1        0.0497
     25 C         139.0161  139.9183  164.9217 C.3     1  UNL1        0.1927
     26 C         139.3038  139.1103  166.1523 C.3     1  UNL1        0.0497
     27 O         138.6721  140.4467  163.5606 O.3     1  UNL1       -0.4773
     28 C         138.7890  141.9416  163.6007 C.ar    1  UNL1        0.1369
     29 C         138.5701  142.9938  162.5542 C.ar    1  UNL1        0.0277
     30 C         138.7676  144.4415  162.8936 C.ar    1  UNL1        0.0001
     31 C         139.1839  144.8370  164.2794 C.ar    1  UNL1       -0.0002
     32 C         139.4027  143.7848  165.3258 C.ar    1  UNL1        0.0041
     33 C         139.2052  142.3371  164.9864 C.ar    1  UNL1        0.0749
     34 C         139.3456  141.0866  165.8029 C.3     1  UNL1        0.3176
     35 F         139.5644  140.0344  166.8492 F       1  UNL1       -0.1957
     36 F         139.7208  142.0349  166.9028 F       1  UNL1       -0.1957
@<TRIPOS>BOND
     1    24    25    1
     2    25    26    1
     3    25    27    1
     4    27    28    1
     5    28    29   ar
     6    29    23    1
     7    23     1    1
     8     1     2    1
     9     2     3    1
    10     3     4    1
    11     4     5    1
    12     5     6    1
    13     4     7    1
    14     7     8    1
    15     8     9    1
    16     9    10   am
    17    10    11    2
    18    10    14    1
    19    14    15   ar
    20    15    16   ar
    21    16    17   ar
    22    17    18    1
    23    17    19   ar
    24    19    20   ar
    25     9    12    1
    26    12    13    1
    27    29    30   ar
    28    30    31   ar
    29    31    32   ar
    30    32    33   ar
    31    33    34    1
    32    34    35    1
    33    34    36    1
    34    34    25    1
    35    33    28   ar
    36     6     1    1
    37    20    14   ar
    38    13     4    1
    39    18    21    1
    40    18    22    1
