@<TRIPOS>MOLECULE
*****
 31 35 0 0 0
SMALL
GASTEIGER

@<TRIPOS>ATOM
      1 C         139.8240  140.0220  167.7014 C.ar    1  UNL1        0.0041
      2 C         138.5053  139.4941  168.1833 C.ar    1  UNL1        0.0002
      3 C         137.6796  138.6134  167.2932 C.ar    1  UNL1        0.0015
      4 C         138.1725  138.2606  165.9211 C.ar    1  UNL1        0.0192
      5 C         139.4912  138.7885  165.4392 C.ar    1  UNL1        0.0856
      6 N         139.9841  138.4357  164.0672 N.ar    1  UNL1       -0.2265
      7 C         141.3028  138.9636  163.5852 C.ar    1  UNL1        0.1637
      8 N         142.1287  139.8444  164.4754 N.ar    1  UNL1       -0.2121
      9 C         141.6357  140.1971  165.8475 C.ar    1  UNL1        0.1318
     10 C         140.3170  139.6692  166.3294 C.ar    1  UNL1        0.0491
     11 C         142.3016  142.6642  170.3719 C.ar    1  UNL1        0.0000
     12 C         141.2625  143.2682  169.4744 C.ar    1  UNL1        0.0000
     13 C         140.4366  142.3875  168.5843 C.ar    1  UNL1        0.0000
     14 C         140.6499  140.9027  168.5916 C.ar    1  UNL1        0.0001
     15 C         141.6890  140.2987  169.4891 C.ar    1  UNL1        0.0000
     16 C         142.5148  141.1794  170.3792 C.ar    1  UNL1        0.0000
     17 C         141.7958  138.6108  162.2132 C.ar    1  UNL1        0.0389
     18 C         143.1674  138.0304  162.0353 C.ar    1  UNL1        0.0237
     19 C         143.6603  137.6776  160.6632 C.ar    1  UNL1        0.0990
     20 N         142.7816  137.9052  159.4691 N.ar    1  UNL1       -0.2423
     21 C         141.4099  138.4856  159.6469 C.ar    1  UNL1        0.0990
     22 C         140.9169  138.8384  161.0190 C.ar    1  UNL1        0.0237
     23 N         142.4615  141.0779  166.7376 N.pl3   1  UNL1       -0.3131
     24 H         142.3669  141.0165  167.7156 H       1  UNL1        0.1485
     25 C         143.4315  142.0522  166.1377 C.3     1  UNL1        0.1348
     26 C         142.9342  143.1593  165.2563 C.ar    1  UNL1        0.0788
     27 C         143.9106  144.0290  164.5215 C.ar    1  UNL1        0.0165
     28 C         143.4133  145.1362  163.6400 C.ar    1  UNL1        0.0029
     29 C         141.9395  145.3736  163.4935 C.ar    1  UNL1        0.0207
     30 C         140.9630  144.5038  164.2283 C.ar    1  UNL1        0.0985
     31 N         141.4603  143.3966  165.1097 N.ar    1  UNL1       -0.2464
@<TRIPOS>BOND
     1    11    12   ar
     2    12    13   ar
     3    13    14   ar
     4    14     1    1
     5     1     2   ar
     6     2     3   ar
     7     3     4   ar
     8     4     5   ar
     9     5     6   ar
    10     6     7   ar
    11     7    17    1
    12    17    18   ar
    13    18    19   ar
    14    19    20   ar
    15    20    21   ar
    16    21    22   ar
    17     7     8   ar
    18     8     9   ar
    19     9    23    1
    20    23    25    1
    21    25    26    1
    22    26    27   ar
    23    27    28   ar
    24    28    29   ar
    25    29    30   ar
    26    30    31   ar
    27     9    10   ar
    28    14    15   ar
    29    15    16   ar
    30    16    11   ar
    31    10     1   ar
    32    10     5   ar
    33    22    17   ar
    34    31    26   ar
    35    23    24    1
@<TRIPOS>MOLECULE
*****
 31 35 0 0 0
SMALL
GASTEIGER

@<TRIPOS>ATOM
      1 C         138.9054  140.3339  164.5694 C.ar    1  UNL1        0.0041
      2 C         138.4963  139.3531  165.6280 C.ar    1  UNL1        0.0002
      3 C         138.5672  137.8802  165.3534 C.ar    1  UNL1        0.0015
      4 C         139.0472  137.3881  164.0202 C.ar    1  UNL1        0.0192
      5 C         139.4564  138.3689  162.9617 C.ar    1  UNL1        0.0856
      6 N         139.9364  137.8768  161.6285 N.ar    1  UNL1       -0.2265
      7 C         140.3456  138.8575  160.5699 C.ar    1  UNL1        0.1637
      8 N         140.2747  140.3305  160.8445 N.ar    1  UNL1       -0.2121
      9 C         139.7946  140.8227  162.1777 C.ar    1  UNL1        0.1318
     10 C         139.3855  139.8418  163.2363 C.ar    1  UNL1        0.0491
     11 C         138.6927  144.7529  165.3932 C.ar    1  UNL1        0.0000
     12 C         137.5994  144.0813  164.6162 C.ar    1  UNL1        0.0000
     13 C         137.6703  142.6083  164.3417 C.ar    1  UNL1        0.0000
     14 C         138.8345  141.8069  164.8440 C.ar    1  UNL1        0.0001
     15 C         139.9278  142.4785  165.6209 C.ar    1  UNL1        0.0000
     16 C         139.8570  143.9514  165.8955 C.ar    1  UNL1        0.0000
     17 C         140.8256  138.3654  159.2367 C.ar    1  UNL1        0.0389
     18 C         142.2822  138.0776  159.0236 C.ar    1  UNL1        0.0237
     19 C         142.7623  137.5855  157.6905 C.ar    1  UNL1        0.0990
     20 N         141.7857  137.3811  156.5704 N.ar    1  UNL1       -0.2423
     21 C         140.3291  137.6690  156.7835 C.ar    1  UNL1        0.0990
     22 C         139.8490  138.1611  158.1166 C.ar    1  UNL1        0.0237
     23 N         139.7237  142.2956  162.4523 N.pl3   1  UNL1       -0.3131
     24 H         138.9473  142.6709  162.9272 H       1  UNL1        0.1485
     25 C         140.8357  143.1966  162.0032 C.3     1  UNL1        0.1348
     26 C         141.9991  143.4622  162.9120 C.ar    1  UNL1        0.0788
     27 C         142.3805  144.8732  163.2493 C.ar    1  UNL1        0.0165
     28 C         143.5440  145.1388  164.1581 C.ar    1  UNL1        0.0029
     29 C         144.3260  143.9935  164.7296 C.ar    1  UNL1        0.0207
     30 C         143.9446  142.5825  164.3923 C.ar    1  UNL1        0.0985
     31 N         142.7812  142.3169  163.4835 N.ar    1  UNL1       -0.2464
@<TRIPOS>BOND
     1    11    12   ar
     2    12    13   ar
     3    13    14   ar
     4    14     1    1
     5     1     2   ar
     6     2     3   ar
     7     3     4   ar
     8     4     5   ar
     9     5     6   ar
    10     6     7   ar
    11     7    17    1
    12    17    18   ar
    13    18    19   ar
    14    19    20   ar
    15    20    21   ar
    16    21    22   ar
    17     7     8   ar
    18     8     9   ar
    19     9    23    1
    20    23    25    1
    21    25    26    1
    22    26    27   ar
    23    27    28   ar
    24    28    29   ar
    25    29    30   ar
    26    30    31   ar
    27     9    10   ar
    28    14    15   ar
    29    15    16   ar
    30    16    11   ar
    31    10     1   ar
    32    10     5   ar
    33    22    17   ar
    34    31    26   ar
    35    23    24    1
@<TRIPOS>MOLECULE
*****
 31 35 0 0 0
SMALL
GASTEIGER

@<TRIPOS>ATOM
      1 C         138.7283  141.9294  162.9742 C.ar    1  UNL1        0.0041
      2 C         137.9816  143.0913  162.3891 C.ar    1  UNL1        0.0002
      3 C         137.8056  144.3486  163.1879 C.ar    1  UNL1        0.0015
      4 C         138.3764  144.4441  164.5718 C.ar    1  UNL1        0.0192
      5 C         139.1231  143.2822  165.1569 C.ar    1  UNL1        0.0856
      6 N         139.6938  143.3776  166.5408 N.ar    1  UNL1       -0.2265
      7 C         140.4406  142.2157  167.1258 C.ar    1  UNL1        0.1637
      8 N         140.6166  140.9583  166.3270 N.ar    1  UNL1       -0.2121
      9 C         140.0458  140.8629  164.9431 C.ar    1  UNL1        0.1318
     10 C         139.2991  142.0249  164.3581 C.ar    1  UNL1        0.0491
     11 C         139.2563  138.1572  160.5778 C.ar    1  UNL1        0.0000
     12 C         140.2075  139.3023  160.3934 C.ar    1  UNL1        0.0000
     13 C         140.0315  140.5597  161.1922 C.ar    1  UNL1        0.0000
     14 C         138.9043  140.6720  162.1754 C.ar    1  UNL1        0.0001
     15 C         137.9531  139.5270  162.3598 C.ar    1  UNL1        0.0000
     16 C         138.1290  138.2696  161.5611 C.ar    1  UNL1        0.0000
     17 C         141.0113  142.3112  168.5097 C.ar    1  UNL1        0.0389
     18 C         140.1131  142.1710  169.7028 C.ar    1  UNL1        0.0237
     19 C         140.6838  142.2664  171.0867 C.ar    1  UNL1        0.0990
     20 N         142.1528  142.5020  171.2775 N.ar    1  UNL1       -0.2423
     21 C         143.0512  142.6422  170.0844 C.ar    1  UNL1        0.0990
     22 C         142.4804  142.5467  168.7005 C.ar    1  UNL1        0.0237
     23 N         140.2218  139.6056  164.1443 N.pl3   1  UNL1       -0.3131
     24 H         139.4630  139.2326  163.6400 H       1  UNL1        0.1485
     25 C         141.5539  138.9165  164.1140 C.3     1  UNL1        0.1348
     26 C         142.7851  139.6811  163.7276 C.ar    1  UNL1        0.0788
     27 C         143.6018  140.3695  164.7808 C.ar    1  UNL1        0.0165
     28 C         144.8331  141.1341  164.3944 C.ar    1  UNL1        0.0029
     29 C         145.2478  141.2103  162.9549 C.ar    1  UNL1        0.0207
     30 C         144.4311  140.5219  161.9017 C.ar    1  UNL1        0.0985
     31 N         143.1998  139.7573  162.2881 N.ar    1  UNL1       -0.2464
@<TRIPOS>BOND
     1    11    12   ar
     2    12    13   ar
     3    13    14   ar
     4    14     1    1
     5     1     2   ar
     6     2     3   ar
     7     3     4   ar
     8     4     5   ar
     9     5     6   ar
    10     6     7   ar
    11     7    17    1
    12    17    18   ar
    13    18    19   ar
    14    19    20   ar
    15    20    21   ar
    16    21    22   ar
    17     7     8   ar
    18     8     9   ar
    19     9    23    1
    20    23    25    1
    21    25    26    1
    22    26    27   ar
    23    27    28   ar
    24    28    29   ar
    25    29    30   ar
    26    30    31   ar
    27     9    10   ar
    28    14    15   ar
    29    15    16   ar
    30    16    11   ar
    31    10     1   ar
    32    10     5   ar
    33    22    17   ar
    34    31    26   ar
    35    23    24    1
@<TRIPOS>MOLECULE
*****
 31 35 0 0 0
SMALL
GASTEIGER

@<TRIPOS>ATOM
      1 C         142.4859  142.4612  162.7736 C.ar    1  UNL1        0.0041
      2 C         143.9089  142.4981  162.3009 C.ar    1  UNL1        0.0002
      3 C         145.0305  142.4898  163.2969 C.ar    1  UNL1        0.0015
      4 C         144.7290  142.4447  164.7656 C.ar    1  UNL1        0.0192
      5 C         143.3059  142.4079  165.2383 C.ar    1  UNL1        0.0856
      6 N         143.0044  142.3628  166.7070 N.ar    1  UNL1       -0.2265
      7 C         141.5814  142.3260  167.1797 C.ar    1  UNL1        0.1637
      8 N         140.4597  142.3343  166.1837 N.ar    1  UNL1       -0.2121
      9 C         140.7612  142.3793  164.7150 C.ar    1  UNL1        0.1318
     10 C         142.1844  142.4162  164.2423 C.ar    1  UNL1        0.0491
     11 C         139.1210  142.4859  159.7857 C.ar    1  UNL1        0.0000
     12 C         139.6457  143.7793  160.3350 C.ar    1  UNL1        0.0000
     13 C         140.7674  143.7711  161.3310 C.ar    1  UNL1        0.0000
     14 C         141.3642  142.4695  161.7776 C.ar    1  UNL1        0.0001
     15 C         140.8395  141.1761  161.2283 C.ar    1  UNL1        0.0000
     16 C         139.7179  141.1843  160.2324 C.ar    1  UNL1        0.0000
     17 C         141.2799  142.2809  168.6484 C.ar    1  UNL1        0.0389
     18 C         141.9937  141.3003  169.5308 C.ar    1  UNL1        0.0237
     19 C         141.6922  141.2553  170.9995 C.ar    1  UNL1        0.0990
     20 N         140.6769  142.1908  171.5858 N.ar    1  UNL1       -0.2423
     21 C         139.9629  143.1715  170.7033 C.ar    1  UNL1        0.0990
     22 C         140.2644  143.2166  169.2346 C.ar    1  UNL1        0.0237
     23 N         139.6397  142.3876  163.7191 N.pl3   1  UNL1       -0.3131
     24 H         139.7229  142.9093  162.8883 H       1  UNL1        0.1485
     25 C         138.3912  141.6010  163.9888 C.3     1  UNL1        0.1348
     26 C         138.4865  140.1673  164.4195 C.ar    1  UNL1        0.0788
     27 C         138.1157  139.7788  165.8200 C.ar    1  UNL1        0.0165
     28 C         138.2109  138.3450  166.2508 C.ar    1  UNL1        0.0029
     29 C         138.6769  137.2999  165.2809 C.ar    1  UNL1        0.0207
     30 C         139.0477  137.6886  163.8803 C.ar    1  UNL1        0.0985
     31 N         138.9525  139.1222  163.4496 N.ar    1  UNL1       -0.2464
@<TRIPOS>BOND
     1    11    12   ar
     2    12    13   ar
     3    13    14   ar
     4    14     1    1
     5     1     2   ar
     6     2     3   ar
     7     3     4   ar
     8     4     5   ar
     9     5     6   ar
    10     6     7   ar
    11     7    17    1
    12    17    18   ar
    13    18    19   ar
    14    19    20   ar
    15    20    21   ar
    16    21    22   ar
    17     7     8   ar
    18     8     9   ar
    19     9    23    1
    20    23    25    1
    21    25    26    1
    22    26    27   ar
    23    27    28   ar
    24    28    29   ar
    25    29    30   ar
    26    30    31   ar
    27     9    10   ar
    28    14    15   ar
    29    15    16   ar
    30    16    11   ar
    31    10     1   ar
    32    10     5   ar
    33    22    17   ar
    34    31    26   ar
    35    23    24    1
@<TRIPOS>MOLECULE
*****
 31 35 0 0 0
SMALL
GASTEIGER

@<TRIPOS>ATOM
      1 C         140.8451  138.6548  163.2888 C.ar    1  UNL1        0.0041
      2 C         139.7182  137.6664  163.2345 C.ar    1  UNL1        0.0002
      3 C         138.7960  137.5154  164.4078 C.ar    1  UNL1        0.0015
      4 C         139.0008  138.3527  165.6354 C.ar    1  UNL1        0.0192
      5 C         140.1277  139.3411  165.6897 C.ar    1  UNL1        0.0856
      6 N         140.3325  140.1784  166.9172 N.ar    1  UNL1       -0.2265
      7 C         141.4594  141.1668  166.9715 C.ar    1  UNL1        0.1637
      8 N         142.3817  141.3180  165.7981 N.ar    1  UNL1       -0.2121
      9 C         142.1769  140.4806  164.5706 C.ar    1  UNL1        0.1318
     10 C         141.0499  139.4922  164.5163 C.ar    1  UNL1        0.0491
     11 C         143.6119  139.1082  159.7688 C.ar    1  UNL1        0.0000
     12 C         142.3304  139.8861  159.8205 C.ar    1  UNL1        0.0000
     13 C         141.4081  139.7349  160.9939 C.ar    1  UNL1        0.0000
     14 C         141.7674  138.8060  162.1154 C.ar    1  UNL1        0.0001
     15 C         143.0489  138.0281  162.0637 C.ar    1  UNL1        0.0000
     16 C         143.9711  138.1792  160.8904 C.ar    1  UNL1        0.0000
     17 C         141.6642  142.0042  168.1991 C.ar    1  UNL1        0.0389
     18 C         142.9671  141.9432  168.9398 C.ar    1  UNL1        0.0237
     19 C         143.1718  142.7805  170.1674 C.ar    1  UNL1        0.0990
     20 N         142.0737  143.6789  170.6542 N.ar    1  UNL1       -0.2423
     21 C         140.7707  143.7399  169.9135 C.ar    1  UNL1        0.0990
     22 C         140.5660  142.9026  168.6859 C.ar    1  UNL1        0.0237
     23 N         143.0991  140.6317  163.3972 N.pl3   1  UNL1       -0.3131
     24 H         143.3524  139.8429  162.8655 H       1  UNL1        0.1485
     25 C         143.6353  141.9848  163.0341 C.3     1  UNL1        0.1348
     26 C         142.6997  143.1481  162.8888 C.ar    1  UNL1        0.0788
     27 C         142.7700  144.2924  163.8560 C.ar    1  UNL1        0.0165
     28 C         141.8343  145.4558  163.7107 C.ar    1  UNL1        0.0029
     29 C         140.8283  145.4748  162.5983 C.ar    1  UNL1        0.0207
     30 C         140.7580  144.3304  161.6311 C.ar    1  UNL1        0.0985
     31 N         141.6936  143.1671  161.7764 N.ar    1  UNL1       -0.2464
@<TRIPOS>BOND
     1    11    12   ar
     2    12    13   ar
     3    13    14   ar
     4    14     1    1
     5     1     2   ar
     6     2     3   ar
     7     3     4   ar
     8     4     5   ar
     9     5     6   ar
    10     6     7   ar
    11     7    17    1
    12    17    18   ar
    13    18    19   ar
    14    19    20   ar
    15    20    21   ar
    16    21    22   ar
    17     7     8   ar
    18     8     9   ar
    19     9    23    1
    20    23    25    1
    21    25    26    1
    22    26    27   ar
    23    27    28   ar
    24    28    29   ar
    25    29    30   ar
    26    30    31   ar
    27     9    10   ar
    28    14    15   ar
    29    15    16   ar
    30    16    11   ar
    31    10     1   ar
    32    10     5   ar
    33    22    17   ar
    34    31    26   ar
    35    23    24    1
@<TRIPOS>MOLECULE
*****
 31 35 0 0 0
SMALL
GASTEIGER

@<TRIPOS>ATOM
      1 C         138.9754  141.6145  163.7559 C.ar    1  UNL1        0.0041
      2 C         138.0770  142.3352  164.7168 C.ar    1  UNL1        0.0002
      3 C         137.5802  143.7123  164.3902 C.ar    1  UNL1        0.0015
      4 C         137.9818  144.3686  163.1025 C.ar    1  UNL1        0.0192
      5 C         138.8801  143.6479  162.1416 C.ar    1  UNL1        0.0856
      6 N         139.2816  144.3043  160.8540 N.ar    1  UNL1       -0.2265
      7 C         140.1800  143.5835  159.8930 C.ar    1  UNL1        0.1637
      8 N         140.6768  142.2064  160.2197 N.ar    1  UNL1       -0.2121
      9 C         140.2753  141.5500  161.5073 C.ar    1  UNL1        0.1318
     10 C         139.3769  142.2708  162.4683 C.ar    1  UNL1        0.0491
     11 C         140.4659  137.4830  164.7358 C.ar    1  UNL1        0.0000
     12 C         141.2026  138.6864  165.2448 C.ar    1  UNL1        0.0000
     13 C         140.7057  140.0636  164.9182 C.ar    1  UNL1        0.0000
     14 C         139.4722  140.2373  164.0825 C.ar    1  UNL1        0.0001
     15 C         138.7356  139.0339  163.5735 C.ar    1  UNL1        0.0000
     16 C         139.2324  137.6568  163.9001 C.ar    1  UNL1        0.0000
     17 C         140.5815  144.2399  158.6054 C.ar    1  UNL1        0.0389
     18 C         141.6616  145.2806  158.5990 C.ar    1  UNL1        0.0237
     19 C         142.0632  145.9370  157.3114 C.ar    1  UNL1        0.0990
     20 N         141.3846  145.5526  156.0301 N.ar    1  UNL1       -0.2423
     21 C         140.3044  144.5117  156.0365 C.ar    1  UNL1        0.0990
     22 C         139.9029  143.8554  157.3241 C.ar    1  UNL1        0.0237
     23 N         140.7721  140.1729  161.8340 N.pl3   1  UNL1       -0.3131
     24 H         140.1838  139.5347  162.2984 H       1  UNL1        0.1485
     25 C         142.1654  139.7682  161.4530 C.3     1  UNL1        0.1348
     26 C         143.3395  140.3259  162.2014 C.ar    1  UNL1        0.0788
     27 C         143.9923  139.5172  163.2830 C.ar    1  UNL1        0.0165
     28 C         145.1665  140.0749  164.0315 C.ar    1  UNL1        0.0029
     29 C         145.6879  141.4413  163.6984 C.ar    1  UNL1        0.0207
     30 C         145.0351  142.2501  162.6168 C.ar    1  UNL1        0.0985
     31 N         143.8609  141.6924  161.8683 N.ar    1  UNL1       -0.2464
@<TRIPOS>BOND
     1    11    12   ar
     2    12    13   ar
     3    13    14   ar
     4    14     1    1
     5     1     2   ar
     6     2     3   ar
     7     3     4   ar
     8     4     5   ar
     9     5     6   ar
    10     6     7   ar
    11     7    17    1
    12    17    18   ar
    13    18    19   ar
    14    19    20   ar
    15    20    21   ar
    16    21    22   ar
    17     7     8   ar
    18     8     9   ar
    19     9    23    1
    20    23    25    1
    21    25    26    1
    22    26    27   ar
    23    27    28   ar
    24    28    29   ar
    25    29    30   ar
    26    30    31   ar
    27     9    10   ar
    28    14    15   ar
    29    15    16   ar
    30    16    11   ar
    31    10     1   ar
    32    10     5   ar
    33    22    17   ar
    34    31    26   ar
    35    23    24    1
@<TRIPOS>MOLECULE
*****
 31 35 0 0 0
SMALL
GASTEIGER

@<TRIPOS>ATOM
      1 C         143.5519  141.2313  163.1449 C.ar    1  UNL1        0.0041
      2 C         144.2964  142.4278  162.6310 C.ar    1  UNL1        0.0002
      3 C         144.5742  143.5864  163.5423 C.ar    1  UNL1        0.0015
      4 C         144.1076  143.5485  164.9673 C.ar    1  UNL1        0.0192
      5 C         143.3631  142.3520  165.4812 C.ar    1  UNL1        0.0856
      6 N         142.8965  142.3141  166.9062 N.ar    1  UNL1       -0.2265
      7 C         142.1521  141.1176  167.4201 C.ar    1  UNL1        0.1637
      8 N         141.8742  139.9589  166.5089 N.ar    1  UNL1       -0.2121
      9 C         142.3408  139.9968  165.0838 C.ar    1  UNL1        0.1318
     10 C         143.0853  141.1934  164.5700 C.ar    1  UNL1        0.0491
     11 C         142.7184  137.7552  160.4113 C.ar    1  UNL1        0.0000
     12 C         141.8157  138.9531  160.3979 C.ar    1  UNL1        0.0000
     13 C         142.0935  140.1118  161.3091 C.ar    1  UNL1        0.0000
     14 C         143.2741  140.0726  162.2337 C.ar    1  UNL1        0.0001
     15 C         144.1768  138.8747  162.2470 C.ar    1  UNL1        0.0000
     16 C         143.8989  137.7160  161.3358 C.ar    1  UNL1        0.0000
     17 C         141.6854  141.0797  168.8452 C.ar    1  UNL1        0.0389
     18 C         142.2495  142.0452  169.8450 C.ar    1  UNL1        0.0237
     19 C         141.7828  142.0073  171.2700 C.ar    1  UNL1        0.0990
     20 N         140.7522  141.0039  171.6953 N.ar    1  UNL1       -0.2423
     21 C         140.1881  140.0383  170.6955 C.ar    1  UNL1        0.0990
     22 C         140.6547  140.0762  169.2704 C.ar    1  UNL1        0.0237
     23 N         142.0630  138.8382  164.1726 N.pl3   1  UNL1       -0.3131
     24 H         142.7649  138.5104  163.5650 H       1  UNL1        0.1485
     25 C         140.7157  138.1788  164.1871 C.3     1  UNL1        0.1348
     26 C         139.6017  138.7304  163.3477 C.ar    1  UNL1        0.0788
     27 C         139.1810  140.1614  163.5062 C.ar    1  UNL1        0.0165
     28 C         138.0669  140.7130  162.6667 C.ar    1  UNL1        0.0029
     29 C         137.3736  139.8336  161.6688 C.ar    1  UNL1        0.0207
     30 C         137.7943  138.4025  161.5104 C.ar    1  UNL1        0.0985
     31 N         138.9083  137.8509  162.3498 N.ar    1  UNL1       -0.2464
@<TRIPOS>BOND
     1    11    12   ar
     2    12    13   ar
     3    13    14   ar
     4    14     1    1
     5     1     2   ar
     6     2     3   ar
     7     3     4   ar
     8     4     5   ar
     9     5     6   ar
    10     6     7   ar
    11     7    17    1
    12    17    18   ar
    13    18    19   ar
    14    19    20   ar
    15    20    21   ar
    16    21    22   ar
    17     7     8   ar
    18     8     9   ar
    19     9    23    1
    20    23    25    1
    21    25    26    1
    22    26    27   ar
    23    27    28   ar
    24    28    29   ar
    25    29    30   ar
    26    30    31   ar
    27     9    10   ar
    28    14    15   ar
    29    15    16   ar
    30    16    11   ar
    31    10     1   ar
    32    10     5   ar
    33    22    17   ar
    34    31    26   ar
    35    23    24    1
@<TRIPOS>MOLECULE
*****
 31 35 0 0 0
SMALL
GASTEIGER

@<TRIPOS>ATOM
      1 C         138.8311  141.6846  164.1650 C.ar    1  UNL1        0.0041
      2 C         137.8351  142.7919  163.9869 C.ar    1  UNL1        0.0002
      3 C         137.6378  143.4130  162.6359 C.ar    1  UNL1        0.0015
      4 C         138.4366  142.9269  161.4631 C.ar    1  UNL1        0.0192
      5 C         139.4327  141.8197  161.6412 C.ar    1  UNL1        0.0856
      6 N         140.2315  141.3336  160.4683 N.ar    1  UNL1       -0.2265
      7 C         141.2275  140.2263  160.6464 C.ar    1  UNL1        0.1637
      8 N         141.4248  139.6050  161.9974 N.ar    1  UNL1       -0.2121
      9 C         140.6260  140.0911  163.1703 C.ar    1  UNL1        0.1318
     10 C         139.6299  141.1985  162.9921 C.ar    1  UNL1        0.0491
     11 C         139.4229  139.8208  168.2180 C.ar    1  UNL1        0.0000
     12 C         140.1426  141.0881  167.8629 C.ar    1  UNL1        0.0000
     13 C         139.9453  141.7093  166.5119 C.ar    1  UNL1        0.0000
     14 C         139.0284  141.0633  165.5160 C.ar    1  UNL1        0.0001
     15 C         138.3086  139.7961  165.8711 C.ar    1  UNL1        0.0000
     16 C         138.5059  139.1748  167.2221 C.ar    1  UNL1        0.0000
     17 C         142.0263  139.7402  159.4735 C.ar    1  UNL1        0.0389
     18 C         141.8587  138.3324  158.9837 C.ar    1  UNL1        0.0237
     19 C         142.6575  137.8463  157.8108 C.ar    1  UNL1        0.0990
     20 N         143.6240  138.7680  157.1278 N.ar    1  UNL1       -0.2423
     21 C         143.7916  140.1758  157.6177 C.ar    1  UNL1        0.0990
     22 C         142.9928  140.6619  158.7906 C.ar    1  UNL1        0.0237
     23 N         140.8232  139.4699  164.5213 N.pl3   1  UNL1       -0.3131
     24 H         140.0438  139.1811  165.0488 H       1  UNL1        0.1485
     25 C         142.2081  139.2887  165.0685 C.3     1  UNL1        0.1348
     26 C         143.2669  140.3124  164.7839 C.ar    1  UNL1        0.0788
     27 C         143.1762  141.6766  165.4007 C.ar    1  UNL1        0.0165
     28 C         144.2351  142.7003  165.1161 C.ar    1  UNL1        0.0029
     29 C         145.3845  142.3597  164.2146 C.ar    1  UNL1        0.0207
     30 C         145.4751  140.9954  163.5977 C.ar    1  UNL1        0.0985
     31 N         144.4163  139.9717  163.8824 N.ar    1  UNL1       -0.2464
@<TRIPOS>BOND
     1    11    12   ar
     2    12    13   ar
     3    13    14   ar
     4    14     1    1
     5     1     2   ar
     6     2     3   ar
     7     3     4   ar
     8     4     5   ar
     9     5     6   ar
    10     6     7   ar
    11     7    17    1
    12    17    18   ar
    13    18    19   ar
    14    19    20   ar
    15    20    21   ar
    16    21    22   ar
    17     7     8   ar
    18     8     9   ar
    19     9    23    1
    20    23    25    1
    21    25    26    1
    22    26    27   ar
    23    27    28   ar
    24    28    29   ar
    25    29    30   ar
    26    30    31   ar
    27     9    10   ar
    28    14    15   ar
    29    15    16   ar
    30    16    11   ar
    31    10     1   ar
    32    10     5   ar
    33    22    17   ar
    34    31    26   ar
    35    23    24    1
@<TRIPOS>MOLECULE
*****
 31 35 0 0 0
SMALL
GASTEIGER

@<TRIPOS>ATOM
      1 C         141.1124  143.4464  162.7082 C.ar    1  UNL1        0.0041
      2 C         140.2373  144.5366  162.1645 C.ar    1  UNL1        0.0002
      3 C         139.2586  145.2314  163.0640 C.ar    1  UNL1        0.0015
      4 C         139.1550  144.8361  164.5073 C.ar    1  UNL1        0.0192
      5 C         140.0302  143.7460  165.0510 C.ar    1  UNL1        0.0856
      6 N         139.9266  143.3507  166.4943 N.ar    1  UNL1       -0.2265
      7 C         140.8018  142.2606  167.0380 C.ar    1  UNL1        0.1637
      8 N         141.7805  141.5656  166.1384 N.ar    1  UNL1       -0.2121
      9 C         141.8841  141.9609  164.6951 C.ar    1  UNL1        0.1318
     10 C         141.0089  143.0511  164.1514 C.ar    1  UNL1        0.0491
     11 C         144.0486  141.3616  160.0095 C.ar    1  UNL1        0.0000
     12 C         144.5062  142.4885  160.8874 C.ar    1  UNL1        0.0000
     13 C         143.5275  143.1834  161.7870 C.ar    1  UNL1        0.0000
     14 C         142.0912  142.7515  161.8086 C.ar    1  UNL1        0.0001
     15 C         141.6336  141.6246  160.9306 C.ar    1  UNL1        0.0000
     16 C         142.6123  140.9297  160.0311 C.ar    1  UNL1        0.0000
     17 C         140.6982  141.8653  168.4812 C.ar    1  UNL1        0.0389
     18 C         140.7293  140.4158  168.8660 C.ar    1  UNL1        0.0237
     19 C         140.6258  140.0205  170.3093 C.ar    1  UNL1        0.0990
     20 N         140.4911  141.0747  171.3678 N.ar    1  UNL1       -0.2423
     21 C         140.4599  142.5243  170.9831 C.ar    1  UNL1        0.0990
     22 C         140.5635  142.9195  169.5398 C.ar    1  UNL1        0.0237
     23 N         142.8628  141.2660  163.7956 N.pl3   1  UNL1       -0.3131
     24 H         143.4796  141.7936  163.2384 H       1  UNL1        0.1485
     25 C         142.9017  139.7673  163.7449 C.3     1  UNL1        0.1348
     26 C         141.6230  138.9854  163.6882 C.ar    1  UNL1        0.0788
     27 C         141.0059  138.4642  164.9522 C.ar    1  UNL1        0.0165
     28 C         139.7271  137.6821  164.8955 C.ar    1  UNL1        0.0029
     29 C         139.0654  137.4214  163.5749 C.ar    1  UNL1        0.0207
     30 C         139.6825  137.9426  162.3109 C.ar    1  UNL1        0.0985
     31 N         140.9612  138.7246  162.3676 N.ar    1  UNL1       -0.2464
@<TRIPOS>BOND
     1    11    12   ar
     2    12    13   ar
     3    13    14   ar
     4    14     1    1
     5     1     2   ar
     6     2     3   ar
     7     3     4   ar
     8     4     5   ar
     9     5     6   ar
    10     6     7   ar
    11     7    17    1
    12    17    18   ar
    13    18    19   ar
    14    19    20   ar
    15    20    21   ar
    16    21    22   ar
    17     7     8   ar
    18     8     9   ar
    19     9    23    1
    20    23    25    1
    21    25    26    1
    22    26    27   ar
    23    27    28   ar
    24    28    29   ar
    25    29    30   ar
    26    30    31   ar
    27     9    10   ar
    28    14    15   ar
    29    15    16   ar
    30    16    11   ar
    31    10     1   ar
    32    10     5   ar
    33    22    17   ar
    34    31    26   ar
    35    23    24    1
