@<TRIPOS>MOLECULE
*****
 32 35 0 0 0
SMALL
GASTEIGER

@<TRIPOS>ATOM
      1 C         137.9903  140.5221  158.3961 C.ar    1  UNL1        0.1015
      2 C         139.0762  141.2391  157.6500 C.ar    1  UNL1        0.0240
      3 C         138.7920  141.8386  156.3047 C.ar    1  UNL1        0.0404
      4 C         137.4220  141.7209  155.7055 C.ar    1  UNL1        0.1639
      5 N         136.8492  142.2071  154.4071 N.ar    1  UNL1       -0.2234
      6 C         135.4093  141.7906  154.3509 C.ar    1  UNL1        0.1197
      7 C         135.0922  141.0469  155.6144 C.ar    1  UNL1        0.1035
      8 N         136.3361  141.0039  156.4516 N.ar    1  UNL1       -0.2107
      9 N         136.6203  140.4045  157.7969 N.ar    1  UNL1       -0.1638
     10 C         138.8428  138.7239  162.4322 C.ar    1  UNL1        0.0214
     11 C         139.4642  138.1329  161.2015 C.ar    1  UNL1       -0.0006
     12 C         139.1800  138.7324  159.8561 C.ar    1  UNL1        0.0014
     13 C         138.2745  139.9227  159.7415 C.ar    1  UNL1        0.0216
     14 C         137.6531  140.5136  160.9722 C.ar    1  UNL1        0.0309
     15 C         137.9372  139.9142  162.3176 C.ar    1  UNL1        0.1375
     16 F         137.3158  140.5051  163.5483 F       1  UNL1       -0.2045
     17 C         139.1269  138.1245  163.7775 C.3     1  UNL1        0.1014
     18 N         139.9285  138.8922  164.7865 N.3     1  UNL1       -0.2689
     19 C         142.4272  138.3128  165.1997 C.3     1  UNL1        0.0188
     20 C         141.3830  139.1636  164.5396 C.3     1  UNL1        0.0724
     21 C         139.2756  139.3887  166.0424 C.3     1  UNL1        0.0724
     22 C         138.0142  138.7449  166.5370 C.3     1  UNL1        0.0188
     23 C         133.7643  140.4510  155.9771 C.ar    1  UNL1        0.0194
     24 C         132.5078  141.2481  155.7883 C.ar    1  UNL1        0.0029
     25 C         131.1799  140.6521  156.1510 C.ar    1  UNL1        0.0184
     26 C         131.1085  139.2591  156.7025 C.ar    1  UNL1        0.1057
     27 C         132.3650  138.4619  156.8913 C.ar    1  UNL1        0.0184
     28 C         133.6929  139.0579  156.5286 C.ar    1  UNL1        0.0029
     29 S         129.7806  138.6631  157.0652 S.O2    1  UNL1        0.0104
     30 C         128.4527  138.0671  157.4279 C.3     1  UNL1        0.1816
     31 O         129.8222  137.8171  155.8273 O.2     1  UNL1       -0.1686
     32 O         129.7390  139.5091  158.3031 O.2     1  UNL1       -0.1686
@<TRIPOS>BOND
     1    19    20    1
     2    20    18    1
     3    18    21    1
     4    21    22    1
     5    18    17    1
     6    17    10    1
     7    10    11   ar
     8    11    12   ar
     9    12    13   ar
    10    13     1    1
    11     1     2   ar
    12     2     3   ar
    13     3     4   ar
    14     4     5   ar
    15     5     6   ar
    16     6     7   ar
    17     7    23    1
    18    23    24   ar
    19    24    25   ar
    20    25    26   ar
    21    26    29    1
    22    29    30    1
    23    29    31    2
    24    29    32    2
    25    26    27   ar
    26    27    28   ar
    27     7     8   ar
    28     8     9   ar
    29    13    14   ar
    30    14    15   ar
    31    15    16    1
    32    15    10   ar
    33     9     1   ar
    34     8     4   ar
    35    28    23   ar
@<TRIPOS>MOLECULE
*****
 32 35 0 0 0
SMALL
GASTEIGER

@<TRIPOS>ATOM
      1 C         138.2250  140.3173  158.6106 C.ar    1  UNL1        0.1015
      2 C         139.4006  140.8251  157.8295 C.ar    1  UNL1        0.0240
      3 C         139.2046  141.3588  156.4414 C.ar    1  UNL1        0.0404
      4 C         137.8332  141.3846  155.8344 C.ar    1  UNL1        0.1639
      5 N         137.3358  141.8488  154.4975 N.ar    1  UNL1       -0.2234
      6 C         135.8529  141.6277  154.4524 C.ar    1  UNL1        0.1197
      7 C         135.4338  141.0270  155.7614 C.ar    1  UNL1        0.1035
      8 N         136.6576  140.8767  156.6155 N.ar    1  UNL1       -0.2107
      9 N         136.8536  140.3431  158.0036 N.ar    1  UNL1       -0.1638
     10 C         138.8127  138.7163  162.7750 C.ar    1  UNL1        0.0214
     11 C         139.4591  138.0288  161.6090 C.ar    1  UNL1       -0.0006
     12 C         139.2632  138.5625  160.2208 C.ar    1  UNL1        0.0014
     13 C         138.4209  139.7836  159.9987 C.ar    1  UNL1        0.0216
     14 C         137.7745  140.4711  161.1647 C.ar    1  UNL1        0.0309
     15 C         137.9704  139.9375  162.5528 C.ar    1  UNL1        0.1375
     16 F         137.3239  140.6250  163.7188 F       1  UNL1       -0.2045
     17 C         139.0085  138.1827  164.1630 C.3     1  UNL1        0.1014
     18 N         139.6386  139.0452  165.2161 N.3     1  UNL1       -0.2689
     19 C         137.7268  138.5189  166.8948 C.3     1  UNL1        0.0188
     20 C         138.8792  139.3781  166.4662 C.3     1  UNL1        0.0724
     21 C         141.0281  139.5749  165.0192 C.3     1  UNL1        0.0724
     22 C         141.2385  140.8909  164.3309 C.3     1  UNL1        0.0188
     23 C         134.0361  140.6438  156.1484 C.ar    1  UNL1        0.0194
     24 C         133.8088  139.5811  157.1823 C.ar    1  UNL1        0.0029
     25 C         132.4112  139.1979  157.5693 C.ar    1  UNL1        0.0184
     26 C         131.2408  139.8773  156.9224 C.ar    1  UNL1        0.1057
     27 C         131.4681  140.9400  155.8884 C.ar    1  UNL1        0.0184
     28 C         132.8657  141.3232  155.5014 C.ar    1  UNL1        0.0029
     29 S         129.8432  139.4941  157.3093 S.O2    1  UNL1        0.0104
     30 C         128.4455  139.1109  157.6963 C.3     1  UNL1        0.1816
     31 O         130.3868  138.5752  158.3629 O.2     1  UNL1       -0.1686
     32 O         129.2995  140.4130  156.2557 O.2     1  UNL1       -0.1686
@<TRIPOS>BOND
     1    19    20    1
     2    20    18    1
     3    18    21    1
     4    21    22    1
     5    18    17    1
     6    17    10    1
     7    10    11   ar
     8    11    12   ar
     9    12    13   ar
    10    13     1    1
    11     1     2   ar
    12     2     3   ar
    13     3     4   ar
    14     4     5   ar
    15     5     6   ar
    16     6     7   ar
    17     7    23    1
    18    23    24   ar
    19    24    25   ar
    20    25    26   ar
    21    26    29    1
    22    29    30    1
    23    29    31    2
    24    29    32    2
    25    26    27   ar
    26    27    28   ar
    27     7     8   ar
    28     8     9   ar
    29    13    14   ar
    30    14    15   ar
    31    15    16    1
    32    15    10   ar
    33     9     1   ar
    34     8     4   ar
    35    28    23   ar
@<TRIPOS>MOLECULE
*****
 32 35 0 0 0
SMALL
GASTEIGER

@<TRIPOS>ATOM
      1 C         143.4422  135.1985  156.6104 C.ar    1  UNL1        0.1015
      2 C         144.0381  135.8592  155.4028 C.ar    1  UNL1        0.0240
      3 C         144.0340  137.3547  155.2876 C.ar    1  UNL1        0.0404
      4 C         143.4341  138.1895  156.3799 C.ar    1  UNL1        0.1639
      5 N         143.2866  139.6734  156.5432 N.ar    1  UNL1       -0.2234
      6 C         142.5995  139.9296  157.8517 C.ar    1  UNL1        0.1197
      7 C         142.3224  138.6042  158.4971 C.ar    1  UNL1        0.1035
      8 N         142.8382  137.5288  157.5875 N.ar    1  UNL1       -0.2107
      9 N         142.8423  136.0333  157.7028 N.ar    1  UNL1       -0.1638
     10 C         143.4543  130.7117  156.9563 C.ar    1  UNL1        0.0214
     11 C         144.5089  131.5204  157.6520 C.ar    1  UNL1       -0.0006
     12 C         144.5049  133.0160  157.5366 C.ar    1  UNL1        0.0014
     13 C         143.4463  133.7029  156.7257 C.ar    1  UNL1        0.0216
     14 C         142.3917  132.8942  156.0301 C.ar    1  UNL1        0.0309
     15 C         142.3957  131.3987  156.1454 C.ar    1  UNL1        0.1375
     16 F         141.3411  130.5900  155.4498 F       1  UNL1       -0.2045
     17 C         143.4584  129.2162  157.0716 C.3     1  UNL1        0.1014
     18 N         143.9729  128.5616  158.3193 N.3     1  UNL1       -0.2689
     19 C         146.1510  127.9020  159.5727 C.3     1  UNL1        0.0188
     20 C         145.3237  127.9091  158.3216 C.3     1  UNL1        0.0724
     21 C         143.1368  128.5594  159.5646 C.3     1  UNL1        0.0724
     22 C         142.2876  127.3680  159.8957 C.3     1  UNL1        0.0188
     23 C         141.6480  138.3915  159.8199 C.ar    1  UNL1        0.0194
     24 C         142.4572  137.9962  161.0195 C.ar    1  UNL1        0.0029
     25 C         141.7827  137.7835  162.3423 C.ar    1  UNL1        0.0184
     26 C         140.2991  137.9662  162.4657 C.ar    1  UNL1        0.1057
     27 C         139.4898  138.3615  161.2661 C.ar    1  UNL1        0.0184
     28 C         140.1643  138.5742  159.9433 C.ar    1  UNL1        0.0029
     29 S         139.6246  137.7535  163.7885 S.O2    1  UNL1        0.0104
     30 C         138.9501  137.5408  165.1113 C.3     1  UNL1        0.1816
     31 O         138.3887  138.4240  163.2661 O.2     1  UNL1       -0.1686
     32 O         140.8605  137.0830  164.3108 O.2     1  UNL1       -0.1686
@<TRIPOS>BOND
     1    19    20    1
     2    20    18    1
     3    18    21    1
     4    21    22    1
     5    18    17    1
     6    17    10    1
     7    10    11   ar
     8    11    12   ar
     9    12    13   ar
    10    13     1    1
    11     1     2   ar
    12     2     3   ar
    13     3     4   ar
    14     4     5   ar
    15     5     6   ar
    16     6     7   ar
    17     7    23    1
    18    23    24   ar
    19    24    25   ar
    20    25    26   ar
    21    26    29    1
    22    29    30    1
    23    29    31    2
    24    29    32    2
    25    26    27   ar
    26    27    28   ar
    27     7     8   ar
    28     8     9   ar
    29    13    14   ar
    30    14    15   ar
    31    15    16    1
    32    15    10   ar
    33     9     1   ar
    34     8     4   ar
    35    28    23   ar
@<TRIPOS>MOLECULE
*****
 32 35 0 0 0
SMALL
GASTEIGER

@<TRIPOS>ATOM
      1 C         139.0635  139.1998  159.3277 C.ar    1  UNL1        0.1015
      2 C         138.3021  140.3623  158.7630 C.ar    1  UNL1        0.0240
      3 C         138.3021  140.6114  157.2839 C.ar    1  UNL1        0.0404
      4 C         139.0635  139.6981  156.3695 C.ar    1  UNL1        0.1639
      5 N         139.2463  139.6926  154.8806 N.ar    1  UNL1       -0.2234
      6 C         140.1207  138.5268  154.5252 C.ar    1  UNL1        0.1197
      7 C         140.4782  137.8117  155.7944 C.ar    1  UNL1        0.1035
      8 N         139.8249  138.5356  156.9342 N.ar    1  UNL1       -0.2107
      9 N         139.8249  138.2865  158.4133 N.ar    1  UNL1       -0.1638
     10 C         139.0635  138.4523  163.7653 C.ar    1  UNL1        0.0214
     11 C         138.0936  139.4290  163.1693 C.ar    1  UNL1       -0.0006
     12 C         138.0936  139.6782  161.6901 C.ar    1  UNL1        0.0014
     13 C         139.0635  138.9507  160.8069 C.ar    1  UNL1        0.0216
     14 C         140.0334  137.9739  161.4029 C.ar    1  UNL1        0.0309
     15 C         140.0334  137.7247  162.8821 C.ar    1  UNL1        0.1375
     16 F         141.0033  136.7480  163.4781 F       1  UNL1       -0.2045
     17 C         139.0635  138.2031  165.2444 C.3     1  UNL1        0.1014
     18 N         139.7374  139.1737  166.1684 N.3     1  UNL1       -0.2689
     19 C         142.2891  138.7462  165.9319 C.3     1  UNL1        0.0188
     20 C         141.1151  139.6764  165.8532 C.3     1  UNL1        0.0724
     21 C         139.0336  139.6416  167.4077 C.3     1  UNL1        0.0724
     22 C         139.8157  140.2724  168.5215 C.3     1  UNL1        0.0188
     23 C         141.3382  136.5877  155.9045 C.ar    1  UNL1        0.0194
     24 C         142.5549  136.6023  156.7817 C.ar    1  UNL1        0.0029
     25 C         143.4149  135.3782  156.8918 C.ar    1  UNL1        0.0184
     26 C         143.0582  134.1395  156.1248 C.ar    1  UNL1        0.1057
     27 C         141.8414  134.1249  155.2477 C.ar    1  UNL1        0.0184
     28 C         140.9815  135.3490  155.1376 C.ar    1  UNL1        0.0029
     29 S         143.9181  132.9155  156.2349 S.O2    1  UNL1        0.0104
     30 C         144.7781  131.6914  156.3450 C.3     1  UNL1        0.1816
     31 O         144.3630  133.3508  157.5997 O.2     1  UNL1       -0.1686
     32 O         143.4732  132.4801  154.8702 O.2     1  UNL1       -0.1686
@<TRIPOS>BOND
     1    19    20    1
     2    20    18    1
     3    18    21    1
     4    21    22    1
     5    18    17    1
     6    17    10    1
     7    10    11   ar
     8    11    12   ar
     9    12    13   ar
    10    13     1    1
    11     1     2   ar
    12     2     3   ar
    13     3     4   ar
    14     4     5   ar
    15     5     6   ar
    16     6     7   ar
    17     7    23    1
    18    23    24   ar
    19    24    25   ar
    20    25    26   ar
    21    26    29    1
    22    29    30    1
    23    29    31    2
    24    29    32    2
    25    26    27   ar
    26    27    28   ar
    27     7     8   ar
    28     8     9   ar
    29    13    14   ar
    30    14    15   ar
    31    15    16    1
    32    15    10   ar
    33     9     1   ar
    34     8     4   ar
    35    28    23   ar
@<TRIPOS>MOLECULE
*****
 32 35 0 0 0
SMALL
GASTEIGER

@<TRIPOS>ATOM
      1 C         139.8193  143.3019  163.2896 C.ar    1  UNL1        0.1015
      2 C         139.5478  144.7746  163.3747 C.ar    1  UNL1        0.0240
      3 C         139.6178  145.6228  162.1396 C.ar    1  UNL1        0.0404
      4 C         139.9593  144.9982  160.8192 C.ar    1  UNL1        0.1639
      5 N         140.1013  145.5761  159.4423 N.ar    1  UNL1       -0.2234
      6 C         140.4606  144.4605  158.5062 C.ar    1  UNL1        0.1197
      7 C         140.5406  143.1931  159.3046 C.ar    1  UNL1        0.1035
      8 N         140.2308  143.5254  160.7341 N.ar    1  UNL1       -0.2107
      9 N         140.1608  142.6773  161.9693 N.ar    1  UNL1       -0.1638
     10 C         139.6093  140.7573  166.9952 C.ar    1  UNL1        0.0214
     11 C         140.5816  141.8971  166.9222 C.ar    1  UNL1       -0.0006
     12 C         140.6516  142.7453  165.6870 C.ar    1  UNL1        0.0014
     13 C         139.7493  142.4537  164.5248 C.ar    1  UNL1        0.0216
     14 C         138.7770  141.3138  164.5978 C.ar    1  UNL1        0.0309
     15 C         138.7070  140.4656  165.8329 C.ar    1  UNL1        0.1375
     16 F         137.7346  139.3258  165.9058 F       1  UNL1       -0.2045
     17 C         139.5393  139.9091  168.2303 C.3     1  UNL1        0.1014
     18 N         140.1630  140.3902  169.5068 N.3     1  UNL1       -0.2689
     19 C         140.0214  142.8556  170.3141 C.3     1  UNL1        0.0188
     20 C         139.4855  141.4547  170.3180 C.3     1  UNL1        0.0724
     21 C         141.4642  139.8068  169.9722 C.3     1  UNL1        0.0724
     22 C         142.5238  139.4453  168.9739 C.3     1  UNL1        0.0188
     23 C         140.8722  141.8323  158.7677 C.ar    1  UNL1        0.0194
     24 C         142.2393  141.2539  158.9829 C.ar    1  UNL1        0.0029
     25 C         142.5710  139.8931  158.4460 C.ar    1  UNL1        0.0184
     26 C         141.5355  139.1107  157.6939 C.ar    1  UNL1        0.1057
     27 C         140.1684  139.6892  157.4787 C.ar    1  UNL1        0.0184
     28 C         139.8367  141.0500  158.0156 C.ar    1  UNL1        0.0029
     29 S         141.8671  137.7499  157.1570 S.O2    1  UNL1        0.0104
     30 C         142.1987  136.3891  156.6201 C.3     1  UNL1        0.1816
     31 O         140.4045  137.4525  157.0074 O.2     1  UNL1       -0.1686
     32 O         143.3297  138.0473  157.3066 O.2     1  UNL1       -0.1686
@<TRIPOS>BOND
     1    19    20    1
     2    20    18    1
     3    18    21    1
     4    21    22    1
     5    18    17    1
     6    17    10    1
     7    10    11   ar
     8    11    12   ar
     9    12    13   ar
    10    13     1    1
    11     1     2   ar
    12     2     3   ar
    13     3     4   ar
    14     4     5   ar
    15     5     6   ar
    16     6     7   ar
    17     7    23    1
    18    23    24   ar
    19    24    25   ar
    20    25    26   ar
    21    26    29    1
    22    29    30    1
    23    29    31    2
    24    29    32    2
    25    26    27   ar
    26    27    28   ar
    27     7     8   ar
    28     8     9   ar
    29    13    14   ar
    30    14    15   ar
    31    15    16    1
    32    15    10   ar
    33     9     1   ar
    34     8     4   ar
    35    28    23   ar
@<TRIPOS>MOLECULE
*****
 32 35 0 0 0
SMALL
GASTEIGER

@<TRIPOS>ATOM
      1 C         140.1282  143.5492  163.1852 C.ar    1  UNL1        0.1015
      2 C         139.8166  145.0160  163.2207 C.ar    1  UNL1        0.0240
      3 C         139.7660  145.8031  161.9448 C.ar    1  UNL1        0.0404
      4 C         140.0269  145.1233  160.6334 C.ar    1  UNL1        0.1639
      5 N         140.0460  145.6355  159.2236 N.ar    1  UNL1       -0.2234
      6 C         140.3695  144.4853  158.3169 C.ar    1  UNL1        0.1197
      7 C         140.5502  143.2621  159.1662 C.ar    1  UNL1        0.1035
      8 N         140.3385  143.6565  160.5978 N.ar    1  UNL1       -0.2107
      9 N         140.3892  142.8694  161.8737 N.ar    1  UNL1       -0.1638
     10 C         140.2802  141.1879  167.0129 C.ar    1  UNL1        0.0214
     11 C         141.2859  142.2717  166.7598 C.ar    1  UNL1       -0.0006
     12 C         141.2352  143.0588  165.4839 C.ar    1  UNL1        0.0014
     13 C         140.1789  142.7621  164.4611 C.ar    1  UNL1        0.0216
     14 C         139.1732  141.6783  164.7142 C.ar    1  UNL1        0.0309
     15 C         139.2239  140.8913  165.9900 C.ar    1  UNL1        0.1375
     16 F         138.2182  139.8075  166.2431 F       1  UNL1       -0.2045
     17 C         140.3309  140.4008  168.2888 C.3     1  UNL1        0.1014
     18 N         140.7687  141.0629  169.5615 N.3     1  UNL1       -0.2689
     19 C         143.3229  141.4407  169.8505 C.3     1  UNL1        0.0188
     20 C         142.0748  140.6829  170.1939 C.3     1  UNL1        0.0724
     21 C         139.9005  142.1050  170.2020 C.3     1  UNL1        0.0724
     22 C         140.2312  143.5592  170.0407 C.3     1  UNL1        0.0188
     23 C         140.8841  141.8862  158.6708 C.ar    1  UNL1        0.0194
     24 C         139.8840  141.1184  157.8583 C.ar    1  UNL1        0.0029
     25 C         140.2179  139.7425  157.3629 C.ar    1  UNL1        0.0184
     26 C         141.5518  139.1343  157.6801 C.ar    1  UNL1        0.1057
     27 C         142.5519  139.9021  158.4927 C.ar    1  UNL1        0.0184
     28 C         142.2180  141.2780  158.9880 C.ar    1  UNL1        0.0029
     29 S         141.8857  137.7584  157.1847 S.O2    1  UNL1        0.0104
     30 C         142.2195  136.3825  156.6894 C.3     1  UNL1        0.1816
     31 O         143.3480  138.0695  157.3063 O.2     1  UNL1       -0.1686
     32 O         140.4233  137.4473  157.0632 O.2     1  UNL1       -0.1686
@<TRIPOS>BOND
     1    19    20    1
     2    20    18    1
     3    18    21    1
     4    21    22    1
     5    18    17    1
     6    17    10    1
     7    10    11   ar
     8    11    12   ar
     9    12    13   ar
    10    13     1    1
    11     1     2   ar
    12     2     3   ar
    13     3     4   ar
    14     4     5   ar
    15     5     6   ar
    16     6     7   ar
    17     7    23    1
    18    23    24   ar
    19    24    25   ar
    20    25    26   ar
    21    26    29    1
    22    29    30    1
    23    29    31    2
    24    29    32    2
    25    26    27   ar
    26    27    28   ar
    27     7     8   ar
    28     8     9   ar
    29    13    14   ar
    30    14    15   ar
    31    15    16    1
    32    15    10   ar
    33     9     1   ar
    34     8     4   ar
    35    28    23   ar
@<TRIPOS>MOLECULE
*****
 32 35 0 0 0
SMALL
GASTEIGER

@<TRIPOS>ATOM
      1 C         142.5625  138.6724  158.3169 C.ar    1  UNL1        0.1015
      2 C         141.9233  139.7518  157.4946 C.ar    1  UNL1        0.0240
      3 C         141.3475  139.4272  156.1481 C.ar    1  UNL1        0.0404
      4 C         141.4108  138.0231  155.6240 C.ar    1  UNL1        0.1639
      5 N         140.9318  137.4075  154.3427 N.ar    1  UNL1       -0.2234
      6 C         141.2751  135.9476  154.3733 C.ar    1  UNL1        0.1197
      7 C         141.9661  135.6610  155.6734 C.ar    1  UNL1        0.1035
      8 N         142.0500  136.9437  156.4464 N.ar    1  UNL1       -0.2107
      9 N         142.6259  137.2684  157.7928 N.ar    1  UNL1       -0.1638
     10 C         144.2902  139.6464  162.3564 C.ar    1  UNL1        0.0214
     11 C         143.8210  138.2534  162.0574 C.ar    1  UNL1       -0.0006
     12 C         143.2451  137.9287  160.7109 C.ar    1  UNL1        0.0014
     13 C         143.1384  138.9971  159.6634 C.ar    1  UNL1        0.0216
     14 C         143.6076  140.3901  159.9624 C.ar    1  UNL1        0.0309
     15 C         144.1835  140.7147  161.3088 C.ar    1  UNL1        0.1375
     16 F         144.6527  142.1078  161.6078 F       1  UNL1       -0.2045
     17 C         144.8661  139.9710  163.7028 C.3     1  UNL1        0.1014
     18 N         143.9569  140.1699  164.8792 N.3     1  UNL1       -0.2689
     19 C         142.1750  138.3663  165.4465 C.3     1  UNL1        0.0188
     20 C         143.5163  138.9903  165.6944 C.3     1  UNL1        0.0724
     21 C         143.4884  141.5483  165.2404 C.3     1  UNL1        0.0724
     22 C         144.3484  142.7378  164.9312 C.3     1  UNL1        0.0188
     23 C         142.4826  134.3261  156.1218 C.ar    1  UNL1        0.0194
     24 C         143.6807  134.2489  157.0211 C.ar    1  UNL1        0.0029
     25 C         144.1972  132.9140  157.4695 C.ar    1  UNL1        0.0184
     26 C         143.5157  131.6561  157.0187 C.ar    1  UNL1        0.1057
     27 C         142.3176  131.7332  156.1194 C.ar    1  UNL1        0.0184
     28 C         141.8011  133.0682  155.6710 C.ar    1  UNL1        0.0029
     29 S         144.0322  130.3211  157.4671 S.O2    1  UNL1        0.0104
     30 C         144.5487  128.9862  157.9155 C.3     1  UNL1        0.1816
     31 O         142.9062  129.6428  156.7447 O.2     1  UNL1       -0.1686
     32 O         145.1583  130.9995  158.1895 O.2     1  UNL1       -0.1686
@<TRIPOS>BOND
     1    19    20    1
     2    20    18    1
     3    18    21    1
     4    21    22    1
     5    18    17    1
     6    17    10    1
     7    10    11   ar
     8    11    12   ar
     9    12    13   ar
    10    13     1    1
    11     1     2   ar
    12     2     3   ar
    13     3     4   ar
    14     4     5   ar
    15     5     6   ar
    16     6     7   ar
    17     7    23    1
    18    23    24   ar
    19    24    25   ar
    20    25    26   ar
    21    26    29    1
    22    29    30    1
    23    29    31    2
    24    29    32    2
    25    26    27   ar
    26    27    28   ar
    27     7     8   ar
    28     8     9   ar
    29    13    14   ar
    30    14    15   ar
    31    15    16    1
    32    15    10   ar
    33     9     1   ar
    34     8     4   ar
    35    28    23   ar
@<TRIPOS>MOLECULE
*****
 32 35 0 0 0
SMALL
GASTEIGER

@<TRIPOS>ATOM
      1 C         141.2259  138.6641  158.6349 C.ar    1  UNL1        0.1015
      2 C         140.8639  140.0155  158.0941 C.ar    1  UNL1        0.0240
      3 C         140.9906  140.2942  156.6257 C.ar    1  UNL1        0.0404
      4 C         141.4792  139.2215  155.6981 C.ar    1  UNL1        0.1639
      5 N         141.7052  139.2032  154.2153 N.ar    1  UNL1       -0.2234
      6 C         142.2069  137.8404  153.8397 C.ar    1  UNL1        0.1197
      7 C         142.2909  137.0165  155.0904 C.ar    1  UNL1        0.1035
      8 N         141.8412  137.8701  156.2389 N.ar    1  UNL1       -0.2107
      9 N         141.7146  137.5914  157.7073 N.ar    1  UNL1       -0.1638
     10 C         140.8460  137.8278  163.0402 C.ar    1  UNL1        0.0214
     11 C         142.2035  137.9242  162.4095 C.ar    1  UNL1       -0.0006
     12 C         142.3301  138.2029  160.9410 C.ar    1  UNL1        0.0014
     13 C         141.0993  138.3853  160.1034 C.ar    1  UNL1        0.0216
     14 C         139.7417  138.2890  160.7341 C.ar    1  UNL1        0.0309
     15 C         139.6151  138.0103  162.2025 C.ar    1  UNL1        0.1375
     16 F         138.2575  137.9139  162.8332 F       1  UNL1       -0.2045
     17 C         140.7193  137.5491  164.5086 C.3     1  UNL1        0.1014
     18 N         140.6984  138.6846  165.4884 N.3     1  UNL1       -0.2689
     19 C         143.2234  138.3275  165.9852 C.3     1  UNL1        0.0188
     20 C         141.9733  139.1432  166.1323 C.3     1  UNL1        0.0724
     21 C         139.4027  139.3615  165.8245 C.3     1  UNL1        0.0724
     22 C         138.2137  138.5440  166.2345 C.3     1  UNL1        0.0188
     23 C         142.7450  135.5895  155.1773 C.ar    1  UNL1        0.0194
     24 C         142.2308  134.5778  154.1965 C.ar    1  UNL1        0.0029
     25 C         142.6849  133.1508  154.2833 C.ar    1  UNL1        0.0184
     26 C         143.6531  132.7355  155.3510 C.ar    1  UNL1        0.1057
     27 C         144.1673  133.7472  156.3318 C.ar    1  UNL1        0.0184
     28 C         143.7133  135.1742  156.2449 C.ar    1  UNL1        0.0029
     29 S         144.1072  131.3085  155.4379 S.O2    1  UNL1        0.0104
     30 C         144.5612  129.8815  155.5248 C.3     1  UNL1        0.1816
     31 O         145.3404  131.7456  156.1714 O.2     1  UNL1       -0.1686
     32 O         142.8739  130.8714  154.7044 O.2     1  UNL1       -0.1686
@<TRIPOS>BOND
     1    19    20    1
     2    20    18    1
     3    18    21    1
     4    21    22    1
     5    18    17    1
     6    17    10    1
     7    10    11   ar
     8    11    12   ar
     9    12    13   ar
    10    13     1    1
    11     1     2   ar
    12     2     3   ar
    13     3     4   ar
    14     4     5   ar
    15     5     6   ar
    16     6     7   ar
    17     7    23    1
    18    23    24   ar
    19    24    25   ar
    20    25    26   ar
    21    26    29    1
    22    29    30    1
    23    29    31    2
    24    29    32    2
    25    26    27   ar
    26    27    28   ar
    27     7     8   ar
    28     8     9   ar
    29    13    14   ar
    30    14    15   ar
    31    15    16    1
    32    15    10   ar
    33     9     1   ar
    34     8     4   ar
    35    28    23   ar
@<TRIPOS>MOLECULE
*****
 32 35 0 0 0
SMALL
GASTEIGER

@<TRIPOS>ATOM
      1 C         142.8044  138.5547  158.8276 C.ar    1  UNL1        0.1015
      2 C         142.5315  139.7909  158.0230 C.ar    1  UNL1        0.0240
      3 C         142.3083  139.6885  156.5433 C.ar    1  UNL1        0.0404
      4 C         142.3581  138.3500  155.8681 C.ar    1  UNL1        0.1639
      5 N         142.1785  137.9409  154.4361 N.ar    1  UNL1       -0.2234
      6 C         142.3404  136.4518  154.3558 C.ar    1  UNL1        0.1197
      7 C         142.6201  135.9407  155.7380 C.ar    1  UNL1        0.1035
      8 N         142.6310  137.1138  156.6727 N.ar    1  UNL1       -0.2107
      9 N         142.8541  137.2162  158.1524 N.ar    1  UNL1       -0.1638
     10 C         143.4739  138.8617  163.2670 C.ar    1  UNL1        0.0214
     11 C         144.3251  139.6584  162.3233 C.ar    1  UNL1       -0.0006
     12 C         144.1019  139.5561  160.8435 C.ar    1  UNL1        0.0014
     13 C         143.0276  138.6570  160.3074 C.ar    1  UNL1        0.0216
     14 C         142.1763  137.8603  161.2511 C.ar    1  UNL1        0.0309
     15 C         142.3995  137.9625  162.7309 C.ar    1  UNL1        0.1375
     16 F         141.5482  137.1658  163.6745 F       1  UNL1       -0.2045
     17 C         143.6970  138.9639  164.7467 C.3     1  UNL1        0.1014
     18 N         142.9271  139.9669  165.5537 N.3     1  UNL1       -0.2689
     19 C         143.4045  142.4187  166.2686 C.3     1  UNL1        0.0188
     20 C         143.0116  141.4258  165.2151 C.3     1  UNL1        0.0724
     21 C         142.0727  139.5111  166.6992 C.3     1  UNL1        0.0724
     22 C         142.6724  139.3511  168.0649 C.3     1  UNL1        0.0188
     23 C         142.8487  134.5080  156.1188 C.ar    1  UNL1        0.0194
     24 C         141.9561  133.4345  155.5701 C.ar    1  UNL1        0.0029
     25 C         142.1847  132.0018  155.9509 C.ar    1  UNL1        0.0184
     26 C         143.3058  131.6424  156.8803 C.ar    1  UNL1        0.1057
     27 C         144.1984  132.7158  157.4290 C.ar    1  UNL1        0.0184
     28 C         143.9698  134.1486  157.0482 C.ar    1  UNL1        0.0029
     29 S         143.5344  130.2097  157.2611 S.O2    1  UNL1        0.0104
     30 C         143.7630  128.7769  157.6418 C.3     1  UNL1        0.1816
     31 O         144.5950  130.6369  158.2320 O.2     1  UNL1       -0.1686
     32 O         142.4739  129.7824  156.2901 O.2     1  UNL1       -0.1686
@<TRIPOS>BOND
     1    19    20    1
     2    20    18    1
     3    18    21    1
     4    21    22    1
     5    18    17    1
     6    17    10    1
     7    10    11   ar
     8    11    12   ar
     9    12    13   ar
    10    13     1    1
    11     1     2   ar
    12     2     3   ar
    13     3     4   ar
    14     4     5   ar
    15     5     6   ar
    16     6     7   ar
    17     7    23    1
    18    23    24   ar
    19    24    25   ar
    20    25    26   ar
    21    26    29    1
    22    29    30    1
    23    29    31    2
    24    29    32    2
    25    26    27   ar
    26    27    28   ar
    27     7     8   ar
    28     8     9   ar
    29    13    14   ar
    30    14    15   ar
    31    15    16    1
    32    15    10   ar
    33     9     1   ar
    34     8     4   ar
    35    28    23   ar
