@<TRIPOS>MOLECULE
*****
 32 36 0 0 0
SMALL
GASTEIGER

@<TRIPOS>ATOM
      1 C         138.6968  139.3854  164.4704 C.ar    1  UNL1        0.1564
      2 C         139.2055  137.9951  164.2295 C.ar    1  UNL1        0.0385
      3 C         139.6293  137.5797  162.8519 C.ar    1  UNL1        0.0033
      4 C         139.5443  138.5546  161.7152 C.ar    1  UNL1        0.0048
      5 C         139.0355  139.9450  161.9561 C.ar    1  UNL1        0.0567
      6 C         138.6117  140.3604  163.3337 C.ar    1  UNL1        0.1209
      7 N         138.1029  141.7508  163.5746 N.ar    1  UNL1       -0.2108
      8 C         138.0179  142.7257  162.4378 C.ar    1  UNL1        0.2163
      9 N         137.5091  144.1161  162.6787 N.pl3   1  UNL1       -0.3274
     10 N         138.4417  142.3103  161.0602 N.ar    1  UNL1       -0.1813
     11 N         138.4705  143.0472  159.7540 N.ar    1  UNL1       -0.1451
     12 C         138.9970  142.1123  158.7059 C.ar    1  UNL1        0.1769
     13 N         139.2937  140.7975  159.3643 N.ar    1  UNL1       -0.2086
     14 C         138.9505  140.9200  160.8193 C.ar    1  UNL1        0.1695
     15 H         137.2310  144.3888  163.5828 H       1  UNL1        0.1452
     16 H         137.4533  144.7560  161.9326 H       1  UNL1        0.1452
     17 C         137.8741  138.7630  166.8549 C.3     1  UNL1        0.2525
     18 O         138.2730  139.8008  165.8481 O.3     1  UNL1       -0.4699
     19 C         139.1926  142.4353  157.2541 C.3     1  UNL1        0.1408
     20 N         139.1864  143.8637  156.7962 N.3     1  UNL1       -0.2644
     21 C         140.1981  144.8295  157.3384 C.3     1  UNL1        0.0941
     22 C         140.1919  146.2579  156.8805 C.3     1  UNL1        0.1081
     23 N         139.1740  146.7205  155.8804 N.pl3   1  UNL1       -0.3047
     24 C         138.1625  145.7547  155.3383 C.3     1  UNL1        0.1067
     25 C         138.1687  144.3263  155.7962 C.3     1  UNL1        0.0777
     26 C         137.1571  143.3605  155.2541 C.3     1  UNL1        0.0192
     27 C         139.1678  148.1489  155.4225 C.ar    1  UNL1        0.0479
     28 C         138.4801  149.1974  156.2457 C.ar    1  UNL1        0.0145
     29 C         138.4739  150.6258  155.7878 C.ar    1  UNL1        0.0013
     30 C         139.1554  151.0056  154.5066 C.ar    1  UNL1        0.0001
     31 C         139.8432  149.9571  153.6835 C.ar    1  UNL1        0.0013
     32 C         139.8494  148.5288  154.1414 C.ar    1  UNL1        0.0145
@<TRIPOS>BOND
     1    17    18    1
     2    18     1    1
     3     1     2   ar
     4     2     3   ar
     5     3     4   ar
     6     4     5   ar
     7     5     6   ar
     8     6     7   ar
     9     7     8   ar
    10     8     9    1
    11     8    10   ar
    12    10    11   ar
    13    11    12   ar
    14    12    19    1
    15    19    20    1
    16    20    21    1
    17    21    22    1
    18    22    23    1
    19    23    27    1
    20    27    28   ar
    21    28    29   ar
    22    29    30   ar
    23    30    31   ar
    24    31    32   ar
    25    23    24    1
    26    24    25    1
    27    25    26    1
    28    12    13   ar
    29    13    14   ar
    30     6     1   ar
    31    14    10   ar
    32    14     5   ar
    33    25    20    1
    34    32    27   ar
    35     9    15    1
    36     9    16    1
@<TRIPOS>MOLECULE
*****
 32 36 0 0 0
SMALL
GASTEIGER

@<TRIPOS>ATOM
      1 C         143.9647  131.6720  155.3400 C.ar    1  UNL1        0.1564
      2 C         144.8568  131.1803  156.4410 C.ar    1  UNL1        0.0385
      3 C         145.1120  132.0430  157.6412 C.ar    1  UNL1        0.0033
      4 C         144.4752  133.3975  157.7404 C.ar    1  UNL1        0.0048
      5 C         143.5831  133.8892  156.6393 C.ar    1  UNL1        0.0567
      6 C         143.3279  133.0264  155.4391 C.ar    1  UNL1        0.1209
      7 N         142.4357  133.5182  154.3380 N.ar    1  UNL1       -0.2108
      8 C         141.7989  134.8726  154.4372 C.ar    1  UNL1        0.2163
      9 N         140.9067  135.3643  153.3361 N.pl3   1  UNL1       -0.3274
     10 N         142.0541  135.7354  155.6374 N.ar    1  UNL1       -0.1813
     11 N         141.5690  137.1048  156.0106 N.ar    1  UNL1       -0.1451
     12 C         142.1612  137.4594  157.3423 C.ar    1  UNL1        0.1769
     13 N         143.0124  136.3092  157.7921 N.ar    1  UNL1       -0.2086
     14 C         142.9462  135.2437  156.7384 C.ar    1  UNL1        0.1695
     15 H         140.7392  134.7981  152.5484 H       1  UNL1        0.1452
     16 H         140.4887  136.2533  153.4012 H       1  UNL1        0.1452
     17 C         144.5057  129.5547  153.9349 C.3     1  UNL1        0.2525
     18 O         143.7094  130.8092  154.1398 O.3     1  UNL1       -0.4699
     19 C         141.9409  138.7396  158.0925 C.3     1  UNL1        0.1408
     20 N         141.3006  138.7134  159.4487 N.3     1  UNL1       -0.2644
     21 C         139.8071  138.6458  159.5718 C.3     1  UNL1        0.0941
     22 C         139.1668  138.6197  160.9280 C.3     1  UNL1        0.1081
     23 N         140.0200  138.6611  162.1611 N.pl3   1  UNL1       -0.3047
     24 C         141.5134  138.7286  162.0380 C.3     1  UNL1        0.1067
     25 C         142.1537  138.7548  160.6818 C.3     1  UNL1        0.0777
     26 C         143.6470  138.8224  160.5586 C.3     1  UNL1        0.0192
     27 C         139.3797  138.6349  163.5173 C.ar    1  UNL1        0.0479
     28 C         139.2894  137.3460  164.2794 C.ar    1  UNL1        0.0145
     29 C         138.6491  137.3198  165.6356 C.ar    1  UNL1        0.0013
     30 C         138.0990  138.5826  166.2298 C.ar    1  UNL1        0.0001
     31 C         138.1893  139.8714  165.4678 C.ar    1  UNL1        0.0013
     32 C         138.8296  139.8976  164.1115 C.ar    1  UNL1        0.0145
@<TRIPOS>BOND
     1    17    18    1
     2    18     1    1
     3     1     2   ar
     4     2     3   ar
     5     3     4   ar
     6     4     5   ar
     7     5     6   ar
     8     6     7   ar
     9     7     8   ar
    10     8     9    1
    11     8    10   ar
    12    10    11   ar
    13    11    12   ar
    14    12    19    1
    15    19    20    1
    16    20    21    1
    17    21    22    1
    18    22    23    1
    19    23    27    1
    20    27    28   ar
    21    28    29   ar
    22    29    30   ar
    23    30    31   ar
    24    31    32   ar
    25    23    24    1
    26    24    25    1
    27    25    26    1
    28    12    13   ar
    29    13    14   ar
    30     6     1   ar
    31    14    10   ar
    32    14     5   ar
    33    25    20    1
    34    32    27   ar
    35     9    15    1
    36     9    16    1
@<TRIPOS>MOLECULE
*****
 32 36 0 0 0
SMALL
GASTEIGER

@<TRIPOS>ATOM
      1 C         140.6215  145.9050  156.6241 C.ar    1  UNL1        0.1564
      2 C         141.4697  145.3954  155.4969 C.ar    1  UNL1        0.0385
      3 C         142.5700  144.4134  155.7708 C.ar    1  UNL1        0.0033
      4 C         142.8222  143.9411  157.1719 C.ar    1  UNL1        0.0048
      5 C         141.9740  144.4508  158.2992 C.ar    1  UNL1        0.0567
      6 C         140.8736  145.4327  158.0253 C.ar    1  UNL1        0.1209
      7 N         140.0254  145.9424  159.1527 N.ar    1  UNL1       -0.2108
      8 C         140.2776  145.4701  160.5538 C.ar    1  UNL1        0.2163
      9 N         139.4294  145.9798  161.6812 N.pl3   1  UNL1       -0.3274
     10 N         141.3780  144.4882  160.8277 N.ar    1  UNL1       -0.1813
     11 N         141.8585  143.8472  162.0959 N.ar    1  UNL1       -0.1451
     12 C         143.0037  142.9414  161.7523 C.ar    1  UNL1        0.1769
     13 N         143.2309  143.0225  160.2718 N.ar    1  UNL1       -0.2086
     14 C         142.2261  143.9785  159.7005 C.ar    1  UNL1        0.1695
     15 H         138.7072  146.6242  161.5014 H       1  UNL1        0.1452
     16 H         139.5949  145.6698  162.6008 H       1  UNL1        0.1452
     17 C         138.4749  146.5735  155.3221 C.3     1  UNL1        0.2525
     18 O         139.5211  146.8869  156.3502 O.3     1  UNL1       -0.4699
     19 C         143.7846  142.1017  162.7195 C.3     1  UNL1        0.1408
     20 N         143.1863  141.7313  164.0441 N.3     1  UNL1       -0.2644
     21 C         142.2438  140.5684  164.1425 C.3     1  UNL1        0.0941
     22 C         141.6456  140.1979  165.4672 C.3     1  UNL1        0.1081
     23 N         141.9898  140.9903  166.6935 N.pl3   1  UNL1       -0.3047
     24 C         142.9322  142.1531  166.5951 C.3     1  UNL1        0.1067
     25 C         143.5305  142.5236  165.2704 C.3     1  UNL1        0.0777
     26 C         144.4729  143.6863  165.1720 C.3     1  UNL1        0.0192
     27 C         141.3915  140.6198  168.0182 C.ar    1  UNL1        0.0479
     28 C         139.9756  141.0012  168.3347 C.ar    1  UNL1        0.0145
     29 C         139.3773  140.6307  169.6594 C.ar    1  UNL1        0.0013
     30 C         140.1949  139.8789  170.6676 C.ar    1  UNL1        0.0001
     31 C         141.6107  139.4976  170.3511 C.ar    1  UNL1        0.0013
     32 C         142.2089  139.8681  169.0264 C.ar    1  UNL1        0.0145
@<TRIPOS>BOND
     1    17    18    1
     2    18     1    1
     3     1     2   ar
     4     2     3   ar
     5     3     4   ar
     6     4     5   ar
     7     5     6   ar
     8     6     7   ar
     9     7     8   ar
    10     8     9    1
    11     8    10   ar
    12    10    11   ar
    13    11    12   ar
    14    12    19    1
    15    19    20    1
    16    20    21    1
    17    21    22    1
    18    22    23    1
    19    23    27    1
    20    27    28   ar
    21    28    29   ar
    22    29    30   ar
    23    30    31   ar
    24    31    32   ar
    25    23    24    1
    26    24    25    1
    27    25    26    1
    28    12    13   ar
    29    13    14   ar
    30     6     1   ar
    31    14    10   ar
    32    14     5   ar
    33    25    20    1
    34    32    27   ar
    35     9    15    1
    36     9    16    1
@<TRIPOS>MOLECULE
*****
 32 36 0 0 0
SMALL
GASTEIGER

@<TRIPOS>ATOM
      1 C         139.3274  139.7832  167.6077 C.ar    1  UNL1        0.1564
      2 C         138.2442  139.1874  166.7582 C.ar    1  UNL1        0.0385
      3 C         138.2207  139.4479  165.2812 C.ar    1  UNL1        0.0033
      4 C         139.2804  140.3042  164.6537 C.ar    1  UNL1        0.0048
      5 C         140.3636  140.9000  165.5032 C.ar    1  UNL1        0.0567
      6 C         140.3871  140.6395  166.9802 C.ar    1  UNL1        0.1209
      7 N         141.4704  141.2353  167.8297 N.ar    1  UNL1       -0.2108
      8 C         142.5301  142.0916  167.2021 C.ar    1  UNL1        0.2163
      9 N         143.6134  142.6874  168.0516 N.pl3   1  UNL1       -0.3274
     10 N         142.5066  142.3520  165.7251 N.ar    1  UNL1       -0.1813
     11 N         143.4102  143.1494  164.8320 N.ar    1  UNL1       -0.1451
     12 C         142.8855  143.0463  163.4306 C.ar    1  UNL1        0.1769
     13 N         141.6575  142.1853  163.4575 N.ar    1  UNL1       -0.2086
     14 C         141.4233  141.7563  164.8756 C.ar    1  UNL1        0.1695
     15 H         143.6288  142.5164  169.0210 H       1  UNL1        0.1452
     16 H         144.3089  143.2494  167.6397 H       1  UNL1        0.1452
     17 C         138.8562  140.5691  170.0388 C.3     1  UNL1        0.2525
     18 O         139.3510  139.5227  169.0847 O.3     1  UNL1       -0.4699
     19 C         143.4837  143.6911  162.2154 C.3     1  UNL1        0.1408
     20 N         142.6166  144.0170  161.0357 N.3     1  UNL1       -0.2644
     21 C         141.4815  144.9863  161.1841 C.3     1  UNL1        0.0941
     22 C         140.6144  145.3122  160.0043 C.3     1  UNL1        0.1081
     23 N         140.8824  144.6688  158.6761 N.pl3   1  UNL1       -0.3047
     24 C         142.0175  143.6995  158.5276 C.3     1  UNL1        0.1067
     25 C         142.8846  143.3737  159.7074 C.3     1  UNL1        0.0777
     26 C         144.0198  142.4044  159.5590 C.3     1  UNL1        0.0192
     27 C         140.0153  144.9947  157.4963 C.ar    1  UNL1        0.0479
     28 C         139.9448  146.4026  156.9834 C.ar    1  UNL1        0.0145
     29 C         139.0777  146.7285  155.8036 C.ar    1  UNL1        0.0013
     30 C         138.2811  145.6464  155.1367 C.ar    1  UNL1        0.0001
     31 C         138.3517  144.2386  155.6495 C.ar    1  UNL1        0.0013
     32 C         139.2188  143.9127  156.8293 C.ar    1  UNL1        0.0145
@<TRIPOS>BOND
     1    17    18    1
     2    18     1    1
     3     1     2   ar
     4     2     3   ar
     5     3     4   ar
     6     4     5   ar
     7     5     6   ar
     8     6     7   ar
     9     7     8   ar
    10     8     9    1
    11     8    10   ar
    12    10    11   ar
    13    11    12   ar
    14    12    19    1
    15    19    20    1
    16    20    21    1
    17    21    22    1
    18    22    23    1
    19    23    27    1
    20    27    28   ar
    21    28    29   ar
    22    29    30   ar
    23    30    31   ar
    24    31    32   ar
    25    23    24    1
    26    24    25    1
    27    25    26    1
    28    12    13   ar
    29    13    14   ar
    30     6     1   ar
    31    14    10   ar
    32    14     5   ar
    33    25    20    1
    34    32    27   ar
    35     9    15    1
    36     9    16    1
@<TRIPOS>MOLECULE
*****
 32 36 0 0 0
SMALL
GASTEIGER

@<TRIPOS>ATOM
      1 C         142.4055  137.7976  156.3145 C.ar    1  UNL1        0.1564
      2 C         141.4202  138.1344  155.2349 C.ar    1  UNL1        0.0385
      3 C         140.0536  138.6360  155.5966 C.ar    1  UNL1        0.0033
      4 C         139.6723  138.8008  157.0379 C.ar    1  UNL1        0.0048
      5 C         140.6576  138.4640  158.1175 C.ar    1  UNL1        0.0567
      6 C         142.0242  137.9624  157.7558 C.ar    1  UNL1        0.1209
      7 N         143.0095  137.6256  158.8356 N.ar    1  UNL1       -0.2108
      8 C         142.6283  137.7904  160.2769 C.ar    1  UNL1        0.2163
      9 N         143.6136  137.4535  161.3566 N.pl3   1  UNL1       -0.3274
     10 N         141.2617  138.2920  160.6386 N.ar    1  UNL1       -0.1813
     11 N         140.6064  138.5538  161.9622 N.ar    1  UNL1       -0.1451
     12 C         139.2161  139.0525  161.7006 C.ar    1  UNL1        0.1769
     13 N         139.0121  139.0988  160.2152 N.ar    1  UNL1       -0.2086
     14 C         140.2764  138.6288  159.5589 C.ar    1  UNL1        0.1695
     15 H         144.5105  137.1243  161.1193 H       1  UNL1        0.1452
     16 H         143.3633  137.5617  162.3026 H       1  UNL1        0.1452
     17 C         143.9908  135.8344  155.6959 C.3     1  UNL1        0.2525
     18 O         143.7721  137.2960  155.9529 O.3     1  UNL1       -0.4699
     19 C         138.2069  139.4373  162.7416 C.3     1  UNL1        0.1408
     20 N         138.6623  139.8718  164.1031 N.3     1  UNL1       -0.2644
     21 C         138.6728  138.8918  165.2387 C.3     1  UNL1        0.0941
     22 C         139.1281  139.3263  166.6002 C.3     1  UNL1        0.1081
     23 N         139.5731  140.7410  166.8262 N.pl3   1  UNL1       -0.3047
     24 C         139.5626  141.7209  165.6906 C.3     1  UNL1        0.1067
     25 C         139.1072  141.2863  164.3291 C.3     1  UNL1        0.0777
     26 C         139.0968  142.2663  163.1936 C.3     1  UNL1        0.0192
     27 C         140.0284  141.1755  168.1877 C.ar    1  UNL1        0.0479
     28 C         140.5784  142.5565  168.3893 C.ar    1  UNL1        0.0145
     29 C         141.0338  142.9910  169.7508 C.ar    1  UNL1        0.0013
     30 C         140.9392  142.0446  170.9108 C.ar    1  UNL1        0.0001
     31 C         140.3892  140.6638  170.7092 C.ar    1  UNL1        0.0013
     32 C         139.9339  140.2292  169.3477 C.ar    1  UNL1        0.0145
@<TRIPOS>BOND
     1    17    18    1
     2    18     1    1
     3     1     2   ar
     4     2     3   ar
     5     3     4   ar
     6     4     5   ar
     7     5     6   ar
     8     6     7   ar
     9     7     8   ar
    10     8     9    1
    11     8    10   ar
    12    10    11   ar
    13    11    12   ar
    14    12    19    1
    15    19    20    1
    16    20    21    1
    17    21    22    1
    18    22    23    1
    19    23    27    1
    20    27    28   ar
    21    28    29   ar
    22    29    30   ar
    23    30    31   ar
    24    31    32   ar
    25    23    24    1
    26    24    25    1
    27    25    26    1
    28    12    13   ar
    29    13    14   ar
    30     6     1   ar
    31    14    10   ar
    32    14     5   ar
    33    25    20    1
    34    32    27   ar
    35     9    15    1
    36     9    16    1
@<TRIPOS>MOLECULE
*****
 32 36 0 0 0
SMALL
GASTEIGER

@<TRIPOS>ATOM
      1 C         140.8546  143.8509  156.4170 C.ar    1  UNL1        0.1564
      2 C         141.5765  145.1478  156.6329 C.ar    1  UNL1        0.0385
      3 C         141.5023  145.8349  157.9642 C.ar    1  UNL1        0.0033
      4 C         140.7062  145.2251  159.0796 C.ar    1  UNL1        0.0048
      5 C         139.9842  143.9282  158.8637 C.ar    1  UNL1        0.0567
      6 C         140.0584  143.2410  157.5324 C.ar    1  UNL1        0.1209
      7 N         139.3364  141.9440  157.3166 N.ar    1  UNL1       -0.2108
      8 C         138.5403  141.3342  158.4320 C.ar    1  UNL1        0.2163
      9 N         137.8182  140.0372  158.2161 N.pl3   1  UNL1       -0.3274
     10 N         138.4661  142.0213  159.7633 N.ar    1  UNL1       -0.1813
     11 N         137.7651  141.6630  161.0401 N.ar    1  UNL1       -0.1451
     12 C         138.0538  142.7384  162.0450 C.ar    1  UNL1        0.1769
     13 N         138.9333  143.7615  161.3893 N.ar    1  UNL1       -0.2086
     14 C         139.1880  143.3183  159.9792 C.ar    1  UNL1        0.1695
     15 H         137.8669  139.5862  157.3424 H       1  UNL1        0.1452
     16 H         137.2957  139.6369  158.9483 H       1  UNL1        0.1452
     17 C         141.1374  143.9683  153.8370 C.3     1  UNL1        0.2525
     18 O         140.9287  143.1637  155.0857 O.3     1  UNL1       -0.4699
     19 C         137.5513  142.7831  163.4577 C.3     1  UNL1        0.1408
     20 N         138.4588  142.4000  164.5889 N.3     1  UNL1       -0.2644
     21 C         138.5723  140.9636  165.0060 C.3     1  UNL1        0.0941
     22 C         139.4798  140.5806  166.1372 C.3     1  UNL1        0.1081
     23 N         140.2738  141.6340  166.8515 N.pl3   1  UNL1       -0.3047
     24 C         140.1602  143.0703  166.4344 C.3     1  UNL1        0.1067
     25 C         139.2527  143.4534  165.3032 C.3     1  UNL1        0.0777
     26 C         139.1392  144.8897  164.8861 C.3     1  UNL1        0.0192
     27 C         141.1813  141.2510  167.9827 C.ar    1  UNL1        0.0479
     28 C         142.3424  142.1296  168.3432 C.ar    1  UNL1        0.0145
     29 C         143.2499  141.7465  169.4745 C.ar    1  UNL1        0.0013
     30 C         142.9963  140.4849  170.2452 C.ar    1  UNL1        0.0001
     31 C         141.8352  139.6064  169.8847 C.ar    1  UNL1        0.0013
     32 C         140.9277  139.9894  168.7535 C.ar    1  UNL1        0.0145
@<TRIPOS>BOND
     1    17    18    1
     2    18     1    1
     3     1     2   ar
     4     2     3   ar
     5     3     4   ar
     6     4     5   ar
     7     5     6   ar
     8     6     7   ar
     9     7     8   ar
    10     8     9    1
    11     8    10   ar
    12    10    11   ar
    13    11    12   ar
    14    12    19    1
    15    19    20    1
    16    20    21    1
    17    21    22    1
    18    22    23    1
    19    23    27    1
    20    27    28   ar
    21    28    29   ar
    22    29    30   ar
    23    30    31   ar
    24    31    32   ar
    25    23    24    1
    26    24    25    1
    27    25    26    1
    28    12    13   ar
    29    13    14   ar
    30     6     1   ar
    31    14    10   ar
    32    14     5   ar
    33    25    20    1
    34    32    27   ar
    35     9    15    1
    36     9    16    1
@<TRIPOS>MOLECULE
*****
 32 36 0 0 0
SMALL
GASTEIGER

@<TRIPOS>ATOM
      1 C         141.1540  141.4342  168.9118 C.ar    1  UNL1        0.1564
      2 C         142.4081  142.1949  168.5978 C.ar    1  UNL1        0.0385
      3 C         143.0142  142.1094  167.2283 C.ar    1  UNL1        0.0033
      4 C         142.3662  141.2631  166.1729 C.ar    1  UNL1        0.0048
      5 C         141.1122  140.5024  166.4869 C.ar    1  UNL1        0.0567
      6 C         140.5061  140.5879  167.8563 C.ar    1  UNL1        0.1209
      7 N         139.2520  139.8272  168.1703 N.ar    1  UNL1       -0.2108
      8 C         138.6040  138.9809  167.1148 C.ar    1  UNL1        0.2163
      9 N         137.3499  138.2201  167.4288 N.pl3   1  UNL1       -0.3274
     10 N         139.2101  138.8954  165.7454 N.ar    1  UNL1       -0.1813
     11 N         138.7996  138.1487  164.5110 N.ar    1  UNL1       -0.1451
     12 C         139.8000  138.4479  163.4341 C.ar    1  UNL1        0.1769
     13 N         140.8287  139.3796  164.0030 N.ar    1  UNL1       -0.2086
     14 C         140.4642  139.6561  165.4314 C.ar    1  UNL1        0.1695
     15 H         136.9521  138.2763  168.3276 H       1  UNL1        0.1452
     16 H         136.9246  137.6647  166.7361 H       1  UNL1        0.1452
     17 C         139.8128  142.7583  170.7000 C.3     1  UNL1        0.2525
     18 O         140.5479  141.5197  170.2812 O.3     1  UNL1       -0.4699
     19 C         139.7758  137.9099  162.0340 C.3     1  UNL1        0.1408
     20 N         139.2536  138.7591  160.9132 N.3     1  UNL1       -0.2644
     21 C         137.8626  139.3167  160.9801 C.3     1  UNL1        0.0941
     22 C         137.3404  140.1659  159.8592 C.3     1  UNL1        0.1081
     23 N         138.2091  140.4574  158.6716 N.pl3   1  UNL1       -0.3047
     24 C         139.5999  139.8997  158.6048 C.3     1  UNL1        0.1067
     25 C         140.1222  139.0506  159.7256 C.3     1  UNL1        0.0777
     26 C         141.5130  138.4929  159.6588 C.3     1  UNL1        0.0192
     27 C         137.6868  141.3065  157.5508 C.ar    1  UNL1        0.0479
     28 C         138.3367  142.6226  157.2413 C.ar    1  UNL1        0.0145
     29 C         137.8144  143.4718  156.1205 C.ar    1  UNL1        0.0013
     30 C         136.6424  143.0048  155.3091 C.ar    1  UNL1        0.0001
     31 C         135.9926  141.6887  155.6186 C.ar    1  UNL1        0.0013
     32 C         136.5148  140.8396  156.7394 C.ar    1  UNL1        0.0145
@<TRIPOS>BOND
     1    17    18    1
     2    18     1    1
     3     1     2   ar
     4     2     3   ar
     5     3     4   ar
     6     4     5   ar
     7     5     6   ar
     8     6     7   ar
     9     7     8   ar
    10     8     9    1
    11     8    10   ar
    12    10    11   ar
    13    11    12   ar
    14    12    19    1
    15    19    20    1
    16    20    21    1
    17    21    22    1
    18    22    23    1
    19    23    27    1
    20    27    28   ar
    21    28    29   ar
    22    29    30   ar
    23    30    31   ar
    24    31    32   ar
    25    23    24    1
    26    24    25    1
    27    25    26    1
    28    12    13   ar
    29    13    14   ar
    30     6     1   ar
    31    14    10   ar
    32    14     5   ar
    33    25    20    1
    34    32    27   ar
    35     9    15    1
    36     9    16    1
@<TRIPOS>MOLECULE
*****
 32 36 0 0 0
SMALL
GASTEIGER

@<TRIPOS>ATOM
      1 C         141.2401  140.6185  169.1047 C.ar    1  UNL1        0.1564
      2 C         142.2816  141.2157  170.0038 C.ar    1  UNL1        0.0385
      3 C         143.3409  142.1114  169.4331 C.ar    1  UNL1        0.0033
      4 C         143.3586  142.4099  167.9632 C.ar    1  UNL1        0.0048
      5 C         142.3170  141.8126  167.0641 C.ar    1  UNL1        0.0567
      6 C         141.2578  140.9169  167.6348 C.ar    1  UNL1        0.1209
      7 N         140.2162  140.3197  166.7356 N.ar    1  UNL1       -0.2108
      8 C         140.2339  140.6182  165.2658 C.ar    1  UNL1        0.2163
      9 N         139.1923  140.0209  164.3666 N.pl3   1  UNL1       -0.3274
     10 N         141.2931  141.5139  164.6950 N.ar    1  UNL1       -0.1813
     11 N         141.5626  141.9850  163.2967 N.ar    1  UNL1       -0.1451
     12 C         142.7706  142.8735  163.3316 C.ar    1  UNL1        0.1769
     13 N         143.2478  142.9514  164.7515 N.ar    1  UNL1       -0.2086
     14 C         142.3346  142.1111  165.5941 C.ar    1  UNL1        0.1695
     15 H         138.4971  139.4331  164.7411 H       1  UNL1        0.1452
     16 H         139.2039  140.2169  163.4018 H       1  UNL1        0.1452
     17 C         138.8323  140.2815  170.0207 C.3     1  UNL1        0.2525
     18 O         140.1809  139.7228  169.6754 O.3     1  UNL1       -0.4699
     19 C         143.3924  143.5629  162.1534 C.3     1  UNL1        0.1408
     20 N         142.5441  143.9542  160.9798 N.3     1  UNL1       -0.2644
     21 C         141.4017  144.9085  161.1651 C.3     1  UNL1        0.0941
     22 C         140.5534  145.2997  159.9915 C.3     1  UNL1        0.1081
     23 N         140.8475  144.7366  158.6326 N.pl3   1  UNL1       -0.3047
     24 C         141.9899  143.7824  158.4474 C.3     1  UNL1        0.1067
     25 C         142.8382  143.3911  159.6210 C.3     1  UNL1        0.0777
     26 C         143.9805  142.4369  159.4357 C.3     1  UNL1        0.0192
     27 C         139.9992  145.1279  157.4590 C.ar    1  UNL1        0.0479
     28 C         139.8843  146.5705  157.0644 C.ar    1  UNL1        0.0145
     29 C         139.0360  146.9617  155.8908 C.ar    1  UNL1        0.0013
     30 C         138.3026  145.9103  155.1118 C.ar    1  UNL1        0.0001
     31 C         138.4175  144.4678  155.5065 C.ar    1  UNL1        0.0013
     32 C         139.2658  144.0765  156.6800 C.ar    1  UNL1        0.0145
@<TRIPOS>BOND
     1    17    18    1
     2    18     1    1
     3     1     2   ar
     4     2     3   ar
     5     3     4   ar
     6     4     5   ar
     7     5     6   ar
     8     6     7   ar
     9     7     8   ar
    10     8     9    1
    11     8    10   ar
    12    10    11   ar
    13    11    12   ar
    14    12    19    1
    15    19    20    1
    16    20    21    1
    17    21    22    1
    18    22    23    1
    19    23    27    1
    20    27    28   ar
    21    28    29   ar
    22    29    30   ar
    23    30    31   ar
    24    31    32   ar
    25    23    24    1
    26    24    25    1
    27    25    26    1
    28    12    13   ar
    29    13    14   ar
    30     6     1   ar
    31    14    10   ar
    32    14     5   ar
    33    25    20    1
    34    32    27   ar
    35     9    15    1
    36     9    16    1
@<TRIPOS>MOLECULE
*****
 32 36 0 0 0
SMALL
GASTEIGER

@<TRIPOS>ATOM
      1 C         140.9469  144.9462  163.1298 C.ar    1  UNL1        0.1564
      2 C         142.2052  145.2036  163.9046 C.ar    1  UNL1        0.0385
      3 C         143.5155  144.6701  163.4059 C.ar    1  UNL1        0.0033
      4 C         143.5674  143.8793  162.1324 C.ar    1  UNL1        0.0048
      5 C         142.3091  143.6220  161.3576 C.ar    1  UNL1        0.0567
      6 C         140.9988  144.1554  161.8563 C.ar    1  UNL1        0.1209
      7 N         139.7405  143.8980  161.0814 N.ar    1  UNL1       -0.2108
      8 C         139.7924  143.1072  159.8079 C.ar    1  UNL1        0.2163
      9 N         138.5341  142.8498  159.0330 N.pl3   1  UNL1       -0.3274
     10 N         141.1027  142.5737  159.3092 N.ar    1  UNL1       -0.1813
     11 N         141.4618  141.7670  158.0966 N.ar    1  UNL1       -0.1451
     12 C         142.9420  141.5259  158.1221 C.ar    1  UNL1        0.1769
     13 N         143.4978  142.1835  159.3504 N.ar    1  UNL1       -0.2086
     14 C         142.3610  142.8311  160.0840 C.ar    1  UNL1        0.1695
     15 H         137.6741  143.1999  159.3603 H       1  UNL1        0.1452
     16 H         138.5682  142.3307  158.1971 H       1  UNL1        0.1452
     17 C         138.8962  144.7556  164.7135 C.3     1  UNL1        0.2525
     18 O         139.6367  145.4797  163.6284 O.3     1  UNL1       -0.4699
     19 C         143.7285  140.7612  157.0989 C.3     1  UNL1        0.1408
     20 N         143.5308  139.2815  156.9532 N.3     1  UNL1       -0.2644
     21 C         142.8246  138.5097  158.0283 C.3     1  UNL1        0.0941
     22 C         142.6269  137.0300  157.8826 C.3     1  UNL1        0.1081
     23 N         143.1355  136.3220  156.6619 N.pl3   1  UNL1       -0.3047
     24 C         143.8417  137.0937  155.5869 C.3     1  UNL1        0.1067
     25 C         144.0393  138.5735  155.7325 C.3     1  UNL1        0.0777
     26 C         144.7455  139.3452  154.6575 C.3     1  UNL1        0.0192
     27 C         142.9378  134.8422  156.5162 C.ar    1  UNL1        0.0479
     28 C         141.9042  134.3135  155.5664 C.ar    1  UNL1        0.0145
     29 C         141.7065  132.8337  155.4207 C.ar    1  UNL1        0.0013
     30 C         142.5424  131.8827  156.2249 C.ar    1  UNL1        0.0001
     31 C         143.5760  132.4113  157.1747 C.ar    1  UNL1        0.0013
     32 C         143.7737  133.8911  157.3204 C.ar    1  UNL1        0.0145
@<TRIPOS>BOND
     1    17    18    1
     2    18     1    1
     3     1     2   ar
     4     2     3   ar
     5     3     4   ar
     6     4     5   ar
     7     5     6   ar
     8     6     7   ar
     9     7     8   ar
    10     8     9    1
    11     8    10   ar
    12    10    11   ar
    13    11    12   ar
    14    12    19    1
    15    19    20    1
    16    20    21    1
    17    21    22    1
    18    22    23    1
    19    23    27    1
    20    27    28   ar
    21    28    29   ar
    22    29    30   ar
    23    30    31   ar
    24    31    32   ar
    25    23    24    1
    26    24    25    1
    27    25    26    1
    28    12    13   ar
    29    13    14   ar
    30     6     1   ar
    31    14    10   ar
    32    14     5   ar
    33    25    20    1
    34    32    27   ar
    35     9    15    1
    36     9    16    1
