@<TRIPOS>MOLECULE
*****
 35 38 0 0 0
SMALL
GASTEIGER

@<TRIPOS>ATOM
      1 N         139.5704  140.3014  165.4428 N.am    1  UNL1       -0.2805
      2 C         140.5636  139.3276  164.8815 C.2     1  UNL1        0.2538
      3 O         141.6401  138.7635  165.7606 O.2     1  UNL1       -0.2697
      4 H         138.8639  140.6716  164.8658 H       1  UNL1        0.1552
      5 C         140.4803  138.9177  163.4409 C.ar    1  UNL1        0.1056
      6 C         139.6427  137.8028  162.8884 C.ar    1  UNL1        0.1279
      7 N         139.8647  137.7469  161.4060 N.ar    1  UNL1       -0.1621
      8 N         140.8396  138.8274  161.0423 N.ar    1  UNL1       -0.2141
      9 C         141.2201  139.5510  162.3000 C.ar    1  UNL1        0.1328
     10 N         142.1730  140.7052  162.3992 N.pl3   1  UNL1       -0.3424
     11 H         142.6119  141.0522  161.5892 H       1  UNL1        0.1437
     12 H         142.3595  141.1157  163.2744 H       1  UNL1        0.1437
     13 C         141.3452  139.1309  159.6631 C.ar    1  UNL1        0.1115
     14 C         140.7707  140.2807  158.8898 C.ar    1  UNL1        0.0215
     15 C         141.2763  140.5842  157.5107 C.ar    1  UNL1        0.0017
     16 C         142.3565  139.7380  156.9047 C.ar    1  UNL1        0.0024
     17 C         142.9311  138.5883  157.6780 C.ar    1  UNL1        0.0312
     18 C         142.4254  138.2847  159.0572 C.ar    1  UNL1        0.1577
     19 F         142.9999  137.1350  159.8305 F       1  UNL1       -0.2026
     20 C         141.0351  142.8053  166.2078 C.3     1  UNL1        0.0323
     21 C         140.3860  141.9631  167.2659 C.ar    1  UNL1       -0.0084
     22 C         140.4693  142.3729  168.7064 C.ar    1  UNL1       -0.0029
     23 C         139.8202  141.5307  169.7644 C.ar    1  UNL1        0.0043
     24 C         139.0879  140.2788  169.3820 C.ar    1  UNL1        0.0549
     25 C         139.0046  139.8690  167.9414 C.ar    1  UNL1        0.0189
     26 C         139.6537  140.7112  166.8834 C.ar    1  UNL1        0.0467
     27 C         138.4388  139.4366  170.4400 C.2     1  UNL1        0.2507
     28 O         139.2157  139.0316  171.6575 O.2     1  UNL1       -0.2698
     29 N         137.0129  138.9995  170.2806 N.am    1  UNL1       -0.2632
     30 H         136.5029  139.2653  169.4815 H       1  UNL1        0.1567
     31 C         136.3638  138.1573  171.3386 C.ar    1  UNL1        0.1767
     32 C         135.3539  138.6273  172.3432 C.ar    1  UNL1        0.0812
     33 C         134.9766  137.4578  173.2033 C.ar    1  UNL1        0.2152
     34 O         135.7534  136.2649  172.7303 O.2     1  UNL1       -0.3489
     35 N         136.6107  136.6972  171.5779 N.ar    1  UNL1       -0.0616
@<TRIPOS>BOND
     1    20    21    1
     2    21    22   ar
     3    22    23   ar
     4    23    24   ar
     5    24    27    1
     6    27    28    2
     7    27    29   am
     8    29    31    1
     9    31    32   ar
    10    32    33   ar
    11    33    34   ar
    12    34    35   ar
    13    24    25   ar
    14    25    26   ar
    15    26     1    1
    16     1     2   am
    17     2     3    2
    18     2     5    1
    19     5     6   ar
    20     6     7   ar
    21     7     8   ar
    22     8    13    1
    23    13    14   ar
    24    14    15   ar
    25    15    16   ar
    26    16    17   ar
    27    17    18   ar
    28    18    19    1
    29     8     9   ar
    30     9    10    1
    31    26    21   ar
    32     9     5   ar
    33    35    31   ar
    34    18    13   ar
    35    29    30    1
    36     1     4    1
    37    10    11    1
    38    10    12    1
@<TRIPOS>MOLECULE
*****
 35 38 0 0 0
SMALL
GASTEIGER

@<TRIPOS>ATOM
      1 N         142.1766  140.0408  165.4713 N.am    1  UNL1       -0.2805
      2 C         141.8851  138.9118  164.5277 C.2     1  UNL1        0.2538
      3 O         141.2526  137.6514  165.0388 O.2     1  UNL1       -0.2697
      4 H         142.5918  140.8680  165.1359 H       1  UNL1        0.1552
      5 C         142.2262  139.0433  163.0729 C.ar    1  UNL1        0.1056
      6 C         143.4129  139.7656  162.5073 C.ar    1  UNL1        0.1279
      7 N         143.3606  139.6442  161.0131 N.ar    1  UNL1       -0.1621
      8 N         142.1415  138.8468  160.6552 N.ar    1  UNL1       -0.2141
      9 C         141.4404  138.4754  161.9283 C.ar    1  UNL1        0.1328
     10 N         140.1755  137.6765  162.0376 N.pl3   1  UNL1       -0.3424
     11 H         139.7307  137.3453  161.2241 H       1  UNL1        0.1437
     12 H         139.7902  137.4833  162.9227 H       1  UNL1        0.1437
     13 C         141.7008  138.4845  159.2680 C.ar    1  UNL1        0.1115
     14 C         142.5834  137.6401  158.3973 C.ar    1  UNL1        0.0215
     15 C         142.1427  137.2778  157.0100 C.ar    1  UNL1        0.0017
     16 C         140.8195  137.7598  156.4935 C.ar    1  UNL1        0.0024
     17 C         139.9370  138.6042  157.3642 C.ar    1  UNL1        0.0312
     18 C         140.3776  138.9665  158.7514 C.ar    1  UNL1        0.1577
     19 F         139.4951  139.8109  159.6222 F       1  UNL1       -0.2026
     20 C         139.5855  141.1398  166.5099 C.3     1  UNL1        0.0323
     21 C         140.5400  140.4588  167.4454 C.ar    1  UNL1       -0.0084
     22 C         140.1990  140.3273  168.9002 C.ar    1  UNL1       -0.0029
     23 C         141.1535  139.6464  169.8357 C.ar    1  UNL1        0.0043
     24 C         142.4490  139.0969  169.3165 C.ar    1  UNL1        0.0549
     25 C         142.7900  139.2283  167.8617 C.ar    1  UNL1        0.0189
     26 C         141.8355  139.9093  166.9262 C.ar    1  UNL1        0.0467
     27 C         143.4035  138.4159  170.2520 C.2     1  UNL1        0.2507
     28 O         144.0205  139.1832  171.3836 O.2     1  UNL1       -0.2698
     29 N         143.7410  136.9676  170.0560 N.am    1  UNL1       -0.2632
     30 H         143.3361  136.4640  169.3133 H       1  UNL1        0.1567
     31 C         144.6955  136.2866  170.9915 C.ar    1  UNL1        0.1767
     32 C         144.3215  135.3862  172.1313 C.ar    1  UNL1        0.0812
     33 C         145.5864  134.9296  172.7958 C.ar    1  UNL1        0.2152
     34 O         146.7423  135.5479  172.0666 O.2     1  UNL1       -0.3489
     35 N         146.1917  136.3866  170.9514 N.ar    1  UNL1       -0.0616
@<TRIPOS>BOND
     1    20    21    1
     2    21    22   ar
     3    22    23   ar
     4    23    24   ar
     5    24    27    1
     6    27    28    2
     7    27    29   am
     8    29    31    1
     9    31    32   ar
    10    32    33   ar
    11    33    34   ar
    12    34    35   ar
    13    24    25   ar
    14    25    26   ar
    15    26     1    1
    16     1     2   am
    17     2     3    2
    18     2     5    1
    19     5     6   ar
    20     6     7   ar
    21     7     8   ar
    22     8    13    1
    23    13    14   ar
    24    14    15   ar
    25    15    16   ar
    26    16    17   ar
    27    17    18   ar
    28    18    19    1
    29     8     9   ar
    30     9    10    1
    31    26    21   ar
    32     9     5   ar
    33    35    31   ar
    34    18    13   ar
    35    29    30    1
    36     1     4    1
    37    10    11    1
    38    10    12    1
@<TRIPOS>MOLECULE
*****
 35 38 0 0 0
SMALL
GASTEIGER

@<TRIPOS>ATOM
      1 N         141.8068  138.2668  158.5025 N.am    1  UNL1       -0.2805
      2 C         142.2264  138.2390  159.9423 C.2     1  UNL1        0.2538
      3 O         143.4424  137.4633  160.3543 O.2     1  UNL1       -0.2697
      4 H         141.0087  138.7760  158.2321 H       1  UNL1        0.1552
      5 C         141.4301  138.9870  160.9702 C.ar    1  UNL1        0.1056
      6 C         140.8272  140.3497  160.7983 C.ar    1  UNL1        0.1279
      7 N         140.1214  140.7084  162.0723 N.ar    1  UNL1       -0.1621
      8 N         140.2881  139.5674  163.0317 N.ar    1  UNL1       -0.2141
      9 C         141.0969  138.5034  162.3505 C.ar    1  UNL1        0.1328
     10 N         141.5015  137.1871  162.9452 N.pl3   1  UNL1       -0.3424
     11 H         141.2331  136.9591  163.8646 H       1  UNL1        0.1437
     12 H         142.0354  136.5513  162.4163 H       1  UNL1        0.1437
     13 C         139.7418  139.5018  164.4271 C.ar    1  UNL1        0.1115
     14 C         140.1532  140.5264  165.4425 C.ar    1  UNL1        0.0215
     15 C         139.6069  140.4608  166.8379 C.ar    1  UNL1        0.0017
     16 C         138.6494  139.3705  167.2180 C.ar    1  UNL1        0.0024
     17 C         138.2380  138.3459  166.2027 C.ar    1  UNL1        0.0312
     18 C         138.7843  138.4115  164.8072 C.ar    1  UNL1        0.1577
     19 F         138.3730  137.3869  163.7918 F       1  UNL1       -0.2026
     20 C         143.3586  139.7705  156.4215 C.3     1  UNL1        0.0323
     21 C         143.3790  138.2707  156.4341 C.ar    1  UNL1       -0.0084
     22 C         144.1752  137.5228  155.4063 C.ar    1  UNL1       -0.0029
     23 C         144.1956  136.0230  155.4189 C.ar    1  UNL1        0.0043
     24 C         143.4197  135.2711  156.4594 C.ar    1  UNL1        0.0549
     25 C         142.6234  136.0191  157.4872 C.ar    1  UNL1        0.0189
     26 C         142.6031  137.5189  157.4746 C.ar    1  UNL1        0.0467
     27 C         143.4400  133.7713  156.4720 C.2     1  UNL1        0.2507
     28 O         142.1520  133.0034  156.4349 O.2     1  UNL1       -0.2698
     29 N         144.7483  133.0394  156.5218 N.am    1  UNL1       -0.2632
     30 H         145.5937  133.5434  156.5462 H       1  UNL1        0.1567
     31 C         144.7687  131.5396  156.5345 C.ar    1  UNL1        0.1767
     32 C         144.7773  130.6477  155.3284 C.ar    1  UNL1        0.0812
     33 C         144.7979  129.2252  155.8039 C.ar    1  UNL1        0.2152
     34 O         144.8021  129.2379  157.3039 O.2     1  UNL1       -0.3489
     35 N         144.7840  130.6683  157.7554 N.ar    1  UNL1       -0.0616
@<TRIPOS>BOND
     1    20    21    1
     2    21    22   ar
     3    22    23   ar
     4    23    24   ar
     5    24    27    1
     6    27    28    2
     7    27    29   am
     8    29    31    1
     9    31    32   ar
    10    32    33   ar
    11    33    34   ar
    12    34    35   ar
    13    24    25   ar
    14    25    26   ar
    15    26     1    1
    16     1     2   am
    17     2     3    2
    18     2     5    1
    19     5     6   ar
    20     6     7   ar
    21     7     8   ar
    22     8    13    1
    23    13    14   ar
    24    14    15   ar
    25    15    16   ar
    26    16    17   ar
    27    17    18   ar
    28    18    19    1
    29     8     9   ar
    30     9    10    1
    31    26    21   ar
    32     9     5   ar
    33    35    31   ar
    34    18    13   ar
    35    29    30    1
    36     1     4    1
    37    10    11    1
    38    10    12    1
@<TRIPOS>MOLECULE
*****
 35 38 0 0 0
SMALL
GASTEIGER

@<TRIPOS>ATOM
      1 N         140.9799  141.0457  161.2313 N.am    1  UNL1       -0.2805
      2 C         142.0780  141.9019  160.6737 C.2     1  UNL1        0.2538
      3 O         142.2541  143.3088  161.1634 O.2     1  UNL1       -0.2697
      4 H         140.8643  140.1223  160.9099 H       1  UNL1        0.1552
      5 C         143.0001  141.3514  159.6264 C.ar    1  UNL1        0.1056
      6 C         143.3542  139.9064  159.4349 C.ar    1  UNL1        0.1279
      7 N         144.3028  139.8112  158.2770 N.ar    1  UNL1       -0.1621
      8 N         144.5351  141.1973  157.7528 N.ar    1  UNL1       -0.2141
      9 C         143.7299  142.1493  158.5868 C.ar    1  UNL1        0.1328
     10 N         143.6658  143.6377  158.4120 N.pl3   1  UNL1       -0.3424
     11 H         144.1841  144.0720  157.6964 H       1  UNL1        0.1437
     12 H         143.1056  144.1802  159.0128 H       1  UNL1        0.1437
     13 C         145.4176  141.5667  156.5974 C.ar    1  UNL1        0.1115
     14 C         145.1186  141.0373  155.2262 C.ar    1  UNL1        0.0215
     15 C         146.0010  141.4067  154.0708 C.ar    1  UNL1        0.0017
     16 C         147.1825  142.3054  154.2868 C.ar    1  UNL1        0.0024
     17 C         147.4814  142.8348  155.6580 C.ar    1  UNL1        0.0312
     18 C         146.5990  142.4654  156.8134 C.ar    1  UNL1        0.1577
     19 F         146.8978  142.9947  158.1847 F       1  UNL1       -0.2026
     20 C         138.5437  142.5968  160.4195 C.3     1  UNL1        0.0323
     21 C         138.8397  142.3718  161.8727 C.ar    1  UNL1       -0.0084
     22 C         137.9177  142.9223  162.9199 C.ar    1  UNL1       -0.0029
     23 C         138.2138  142.6972  164.3731 C.ar    1  UNL1        0.0043
     24 C         139.4319  141.9217  164.7790 C.ar    1  UNL1        0.0549
     25 C         140.3539  141.3712  163.7317 C.ar    1  UNL1        0.0189
     26 C         140.0578  141.5962  162.2786 C.ar    1  UNL1        0.0467
     27 C         139.7280  141.6967  166.2322 C.2     1  UNL1        0.2507
     28 O         140.2463  142.8238  167.0753 O.2     1  UNL1       -0.2698
     29 N         139.5057  140.3445  166.8422 N.am    1  UNL1       -0.2632
     30 H         139.1655  139.6047  166.2889 H       1  UNL1        0.1567
     31 C         139.8018  140.1195  168.2954 C.ar    1  UNL1        0.1767
     32 C         141.1640  139.9647  168.9040 C.ar    1  UNL1        0.0812
     33 C         140.9917  139.7593  170.3799 C.ar    1  UNL1        0.2152
     34 O         139.5230  139.7871  170.6834 O.2     1  UNL1       -0.3489
     35 N         138.7875  140.0097  169.3952 N.ar    1  UNL1       -0.0616
@<TRIPOS>BOND
     1    20    21    1
     2    21    22   ar
     3    22    23   ar
     4    23    24   ar
     5    24    27    1
     6    27    28    2
     7    27    29   am
     8    29    31    1
     9    31    32   ar
    10    32    33   ar
    11    33    34   ar
    12    34    35   ar
    13    24    25   ar
    14    25    26   ar
    15    26     1    1
    16     1     2   am
    17     2     3    2
    18     2     5    1
    19     5     6   ar
    20     6     7   ar
    21     7     8   ar
    22     8    13    1
    23    13    14   ar
    24    14    15   ar
    25    15    16   ar
    26    16    17   ar
    27    17    18   ar
    28    18    19    1
    29     8     9   ar
    30     9    10    1
    31    26    21   ar
    32     9     5   ar
    33    35    31   ar
    34    18    13   ar
    35    29    30    1
    36     1     4    1
    37    10    11    1
    38    10    12    1
@<TRIPOS>MOLECULE
*****
 35 38 0 0 0
SMALL
GASTEIGER

@<TRIPOS>ATOM
      1 N         142.3165  140.3563  165.5709 N.am    1  UNL1       -0.2805
      2 C         143.1143  141.5774  165.2212 C.2     1  UNL1        0.2538
      3 O         143.5085  142.5484  166.2944 O.2     1  UNL1       -0.2697
      4 H         142.0577  139.7189  164.8665 H       1  UNL1        0.1552
      5 C         143.5179  141.8275  163.7983 C.ar    1  UNL1        0.1056
      6 C         144.9216  141.8434  163.2698 C.ar    1  UNL1        0.1279
      7 N         144.8598  142.1314  161.7990 N.ar    1  UNL1       -0.1621
      8 N         143.4179  142.2934  161.4184 N.ar    1  UNL1       -0.2141
      9 C         142.5885  142.1056  162.6542 C.ar    1  UNL1        0.1328
     10 N         141.0925  142.1824  162.7320 N.pl3   1  UNL1       -0.3424
     11 H         140.5665  142.3713  161.9215 H       1  UNL1        0.1437
     12 H         140.6367  142.0439  163.5935 H       1  UNL1        0.1437
     13 C         142.8969  142.5910  160.0437 C.ar    1  UNL1        0.1115
     14 C         142.1216  143.8501  159.7918 C.ar    1  UNL1        0.0215
     15 C         141.6006  144.1477  158.4171 C.ar    1  UNL1        0.0017
     16 C         141.8549  143.1862  157.2942 C.ar    1  UNL1        0.0024
     17 C         142.6303  141.9271  157.5461 C.ar    1  UNL1        0.0312
     18 C         143.1513  141.6295  158.9208 C.ar    1  UNL1        0.1577
     19 F         143.9267  140.3704  159.1728 F       1  UNL1       -0.2026
     20 C         139.6162  141.2330  166.5405 C.3     1  UNL1        0.0323
     21 C         140.5628  140.5445  167.4786 C.ar    1  UNL1       -0.0084
     22 C         140.1592  140.2944  168.9014 C.ar    1  UNL1       -0.0029
     23 C         141.1057  139.6059  169.8395 C.ar    1  UNL1        0.0043
     24 C         142.4558  139.1675  169.3548 C.ar    1  UNL1        0.0549
     25 C         142.8594  139.4176  167.9319 C.ar    1  UNL1        0.0189
     26 C         141.9128  140.1061  166.9938 C.ar    1  UNL1        0.0467
     27 C         143.4024  138.4790  170.2928 C.2     1  UNL1        0.2507
     28 O         143.9810  139.2269  171.4572 O.2     1  UNL1       -0.2698
     29 N         143.7703  137.0425  170.0666 N.am    1  UNL1       -0.2632
     30 H         143.3905  136.5516  169.3024 H       1  UNL1        0.1567
     31 C         144.7168  136.3540  171.0047 C.ar    1  UNL1        0.1767
     32 C         144.3534  135.2982  172.0063 C.ar    1  UNL1        0.0812
     33 C         145.6049  134.8921  172.7265 C.ar    1  UNL1        0.2152
     34 O         146.7419  135.6969  172.1701 O.2     1  UNL1       -0.3489
     35 N         146.1930  136.6005  171.1059 N.ar    1  UNL1       -0.0616
@<TRIPOS>BOND
     1    20    21    1
     2    21    22   ar
     3    22    23   ar
     4    23    24   ar
     5    24    27    1
     6    27    28    2
     7    27    29   am
     8    29    31    1
     9    31    32   ar
    10    32    33   ar
    11    33    34   ar
    12    34    35   ar
    13    24    25   ar
    14    25    26   ar
    15    26     1    1
    16     1     2   am
    17     2     3    2
    18     2     5    1
    19     5     6   ar
    20     6     7   ar
    21     7     8   ar
    22     8    13    1
    23    13    14   ar
    24    14    15   ar
    25    15    16   ar
    26    16    17   ar
    27    17    18   ar
    28    18    19    1
    29     8     9   ar
    30     9    10    1
    31    26    21   ar
    32     9     5   ar
    33    35    31   ar
    34    18    13   ar
    35    29    30    1
    36     1     4    1
    37    10    11    1
    38    10    12    1
@<TRIPOS>MOLECULE
*****
 35 38 0 0 0
SMALL
GASTEIGER

@<TRIPOS>ATOM
      1 N         140.5601  141.0577  162.0130 N.am    1  UNL1       -0.2805
      2 C         139.8692  142.3706  161.7922 C.2     1  UNL1        0.2538
      3 O         138.5950  142.6795  162.5210 O.2     1  UNL1       -0.2697
      4 H         141.3963  140.8549  161.5347 H       1  UNL1        0.1552
      5 C         140.4524  143.3747  160.8426 C.ar    1  UNL1        0.1056
      6 C         141.6543  144.2350  161.0977 C.ar    1  UNL1        0.1279
      7 N         141.8808  145.0867  159.8839 N.ar    1  UNL1       -0.1621
      8 N         140.8188  144.7528  158.8786 N.ar    1  UNL1       -0.2141
      9 C         139.9359  143.6946  159.4711 C.ar    1  UNL1        0.1328
     10 N         138.7457  143.0668  158.8084 N.pl3   1  UNL1       -0.3424
     11 H         138.4839  143.3448  157.9010 H       1  UNL1        0.1437
     12 H         138.2264  142.3766  159.2809 H       1  UNL1        0.1437
     13 C         140.6664  145.3688  157.5194 C.ar    1  UNL1        0.1115
     14 C         139.6652  146.4641  157.3004 C.ar    1  UNL1        0.0215
     15 C         139.5128  147.0801  155.9413 C.ar    1  UNL1        0.0017
     16 C         140.3616  146.6008  154.8012 C.ar    1  UNL1        0.0024
     17 C         141.3628  145.5055  155.0201 C.ar    1  UNL1        0.0312
     18 C         141.5152  144.8895  156.3793 C.ar    1  UNL1        0.1577
     19 F         142.5163  143.7942  156.5984 F       1  UNL1       -0.2026
     20 C         139.4562  138.4708  160.9693 C.3     1  UNL1        0.0323
     21 C         139.4249  138.7602  162.4407 C.ar    1  UNL1       -0.0084
     22 C         138.8417  137.7561  163.3904 C.ar    1  UNL1       -0.0029
     23 C         138.8105  138.0455  164.8618 C.ar    1  UNL1        0.0043
     24 C         139.3624  139.3390  165.3837 C.ar    1  UNL1        0.0549
     25 C         139.9456  140.3430  164.4341 C.ar    1  UNL1        0.0189
     26 C         139.9768  140.0536  162.9626 C.ar    1  UNL1        0.0467
     27 C         139.3312  139.6284  166.8552 C.2     1  UNL1        0.2507
     28 O         138.2490  139.0415  167.7122 O.2     1  UNL1       -0.2698
     29 N         140.3821  140.5046  167.4697 N.am    1  UNL1       -0.2632
     30 H         141.0924  140.8898  166.9073 H       1  UNL1        0.1567
     31 C         140.3509  140.7940  168.9412 C.ar    1  UNL1        0.1767
     32 C         140.3123  142.1545  169.5716 C.ar    1  UNL1        0.0812
     33 C         140.2903  141.9751  171.0607 C.ar    1  UNL1        0.2152
     34 O         140.3153  140.5036  171.3506 O.2     1  UNL1       -0.3489
     35 N         140.3527  139.7735  170.0407 N.ar    1  UNL1       -0.0616
@<TRIPOS>BOND
     1    20    21    1
     2    21    22   ar
     3    22    23   ar
     4    23    24   ar
     5    24    27    1
     6    27    28    2
     7    27    29   am
     8    29    31    1
     9    31    32   ar
    10    32    33   ar
    11    33    34   ar
    12    34    35   ar
    13    24    25   ar
    14    25    26   ar
    15    26     1    1
    16     1     2   am
    17     2     3    2
    18     2     5    1
    19     5     6   ar
    20     6     7   ar
    21     7     8   ar
    22     8    13    1
    23    13    14   ar
    24    14    15   ar
    25    15    16   ar
    26    16    17   ar
    27    17    18   ar
    28    18    19    1
    29     8     9   ar
    30     9    10    1
    31    26    21   ar
    32     9     5   ar
    33    35    31   ar
    34    18    13   ar
    35    29    30    1
    36     1     4    1
    37    10    11    1
    38    10    12    1
@<TRIPOS>MOLECULE
*****
 35 38 0 0 0
SMALL
GASTEIGER

@<TRIPOS>ATOM
      1 N         140.7734  140.9312  161.2156 N.am    1  UNL1       -0.2805
      2 C         140.4380  139.6195  160.5700 C.2     1  UNL1        0.2538
      3 O         139.2110  138.8674  160.9929 O.2     1  UNL1       -0.2697
      4 H         141.5787  141.4248  160.9380 H       1  UNL1        0.1552
      5 C         141.3295  139.0599  159.5013 C.ar    1  UNL1        0.1056
      6 C         142.8269  139.1425  159.4696 C.ar    1  UNL1        0.1279
      7 N         143.3030  138.4531  158.2254 N.ar    1  UNL1       -0.1621
      8 N         142.0998  137.9442  157.4881 N.ar    1  UNL1       -0.2141
      9 C         140.8801  138.3193  158.2767 C.ar    1  UNL1        0.1328
     10 N         139.4603  138.0083  157.9058 N.pl3   1  UNL1       -0.3424
     11 H         139.2650  137.5144  157.0769 H       1  UNL1        0.1437
     12 H         138.7238  138.2982  158.4912 H       1  UNL1        0.1437
     13 C         142.1139  137.1924  156.1902 C.ar    1  UNL1        0.1115
     14 C         142.0378  135.6944  156.1905 C.ar    1  UNL1        0.0215
     15 C         142.0518  134.9425  154.8926 C.ar    1  UNL1        0.0017
     16 C         142.1420  135.6888  153.5945 C.ar    1  UNL1        0.0024
     17 C         142.2180  137.1869  153.5943 C.ar    1  UNL1        0.0312
     18 C         142.2040  137.9387  154.8922 C.ar    1  UNL1        0.1577
     19 F         142.2800  139.4368  154.8921 F       1  UNL1       -0.2026
     20 C         138.3172  142.4798  160.4611 C.3     1  UNL1        0.0323
     21 C         138.6538  142.2651  161.9070 C.ar    1  UNL1       -0.0084
     22 C         137.7623  142.8247  162.9757 C.ar    1  UNL1       -0.0029
     23 C         138.0988  142.6100  164.4216 C.ar    1  UNL1        0.0043
     24 C         139.3269  141.8358  164.7988 C.ar    1  UNL1        0.0549
     25 C         140.2184  141.2762  163.7302 C.ar    1  UNL1        0.0189
     26 C         139.8818  141.4908  162.2843 C.ar    1  UNL1        0.0467
     27 C         139.6634  141.6211  166.2448 C.2     1  UNL1        0.2507
     28 O         140.2902  142.7269  167.0411 O.2     1  UNL1       -0.2698
     29 N         139.3732  140.3005  166.8943 N.am    1  UNL1       -0.2632
     30 H         138.9619  139.5747  166.3716 H       1  UNL1        0.1567
     31 C         139.7098  140.0859  168.3402 C.ar    1  UNL1        0.1767
     32 C         141.0900  139.9799  168.9179 C.ar    1  UNL1        0.0812
     33 C         140.9585  139.7680  170.3970 C.ar    1  UNL1        0.2152
     34 O         139.4969  139.7430  170.7335 O.2     1  UNL1       -0.3489
     35 N         138.7251  139.9394  169.4623 N.ar    1  UNL1       -0.0616
@<TRIPOS>BOND
     1    20    21    1
     2    21    22   ar
     3    22    23   ar
     4    23    24   ar
     5    24    27    1
     6    27    28    2
     7    27    29   am
     8    29    31    1
     9    31    32   ar
    10    32    33   ar
    11    33    34   ar
    12    34    35   ar
    13    24    25   ar
    14    25    26   ar
    15    26     1    1
    16     1     2   am
    17     2     3    2
    18     2     5    1
    19     5     6   ar
    20     6     7   ar
    21     7     8   ar
    22     8    13    1
    23    13    14   ar
    24    14    15   ar
    25    15    16   ar
    26    16    17   ar
    27    17    18   ar
    28    18    19    1
    29     8     9   ar
    30     9    10    1
    31    26    21   ar
    32     9     5   ar
    33    35    31   ar
    34    18    13   ar
    35    29    30    1
    36     1     4    1
    37    10    11    1
    38    10    12    1
@<TRIPOS>MOLECULE
*****
 35 38 0 0 0
SMALL
GASTEIGER

@<TRIPOS>ATOM
      1 N         142.2283  139.1653  158.9800 N.am    1  UNL1       -0.2805
      2 C         142.9996  139.1254  160.2659 C.2     1  UNL1        0.2538
      3 O         144.3871  138.5560  160.2909 O.2     1  UNL1       -0.2697
      4 H         141.3176  139.5391  158.9636 H       1  UNL1        0.1552
      5 C         142.3833  139.6550  161.5269 C.ar    1  UNL1        0.1056
      6 C         140.9911  140.1951  161.6686 C.ar    1  UNL1        0.1279
      7 N         140.7985  140.6112  163.0967 N.ar    1  UNL1       -0.1621
      8 N         142.0717  140.3283  163.8378 N.ar    1  UNL1       -0.2141
      9 C         143.0512  139.7373  162.8675 C.ar    1  UNL1        0.1328
     10 N         144.4525  139.3045  163.1825 N.pl3   1  UNL1       -0.3424
     11 H         144.8028  139.3991  164.0977 H       1  UNL1        0.1437
     12 H         145.0218  138.9260  162.4741 H       1  UNL1        0.1437
     13 C         142.3215  140.5904  165.2934 C.ar    1  UNL1        0.1115
     14 C         142.5719  141.9900  165.7713 C.ar    1  UNL1        0.0215
     15 C         142.8217  142.2520  167.2269 C.ar    1  UNL1        0.0017
     16 C         142.8212  141.1145  168.2047 C.ar    1  UNL1        0.0024
     17 C         142.5708  139.7149  167.7268 C.ar    1  UNL1        0.0312
     18 C         142.3210  139.4528  166.2712 C.ar    1  UNL1        0.1577
     19 F         142.0706  138.0532  165.7932 F       1  UNL1       -0.2026
     20 C         143.4530  141.0570  156.9997 C.3     1  UNL1        0.0323
     21 C         143.4569  139.5816  156.7289 C.ar    1  UNL1       -0.0084
     22 C         144.0731  139.0521  155.4681 C.ar    1  UNL1       -0.0029
     23 C         144.0769  137.5767  155.1973 C.ar    1  UNL1        0.0043
     24 C         143.4646  136.6309  156.1875 C.ar    1  UNL1        0.0549
     25 C         142.8484  137.1605  157.4483 C.ar    1  UNL1        0.0189
     26 C         142.8445  138.6358  157.7191 C.ar    1  UNL1        0.0467
     27 C         143.4684  135.1556  155.9167 C.2     1  UNL1        0.2507
     28 O         143.1645  134.6450  154.5394 O.2     1  UNL1       -0.2698
     29 N         143.7761  134.1908  157.0232 N.am    1  UNL1       -0.2632
     30 H         143.9756  134.5259  157.9272 H       1  UNL1        0.1567
     31 C         143.7800  132.7154  156.7525 C.ar    1  UNL1        0.1767
     32 C         144.9183  131.9280  156.1745 C.ar    1  UNL1        0.0812
     33 C         144.4880  130.4944  156.0770 C.ar    1  UNL1        0.2152
     34 O         143.0837  130.3957  156.5947 O.2     1  UNL1       -0.3489
     35 N         142.6460  131.7684  157.0123 N.ar    1  UNL1       -0.0616
@<TRIPOS>BOND
     1    20    21    1
     2    21    22   ar
     3    22    23   ar
     4    23    24   ar
     5    24    27    1
     6    27    28    2
     7    27    29   am
     8    29    31    1
     9    31    32   ar
    10    32    33   ar
    11    33    34   ar
    12    34    35   ar
    13    24    25   ar
    14    25    26   ar
    15    26     1    1
    16     1     2   am
    17     2     3    2
    18     2     5    1
    19     5     6   ar
    20     6     7   ar
    21     7     8   ar
    22     8    13    1
    23    13    14   ar
    24    14    15   ar
    25    15    16   ar
    26    16    17   ar
    27    17    18   ar
    28    18    19    1
    29     8     9   ar
    30     9    10    1
    31    26    21   ar
    32     9     5   ar
    33    35    31   ar
    34    18    13   ar
    35    29    30    1
    36     1     4    1
    37    10    11    1
    38    10    12    1
@<TRIPOS>MOLECULE
*****
 35 38 0 0 0
SMALL
GASTEIGER

@<TRIPOS>ATOM
      1 N         141.0571  138.6152  157.4608 N.am    1  UNL1       -0.2805
      2 C         141.1827  138.9759  158.9113 C.2     1  UNL1        0.2538
      3 O         142.3961  138.5553  159.6864 O.2     1  UNL1       -0.2697
      4 H         140.2607  138.8912  156.9521 H       1  UNL1        0.1552
      5 C         140.0949  139.7574  159.5867 C.ar    1  UNL1        0.1056
      6 C         138.6367  139.7223  159.2370 C.ar    1  UNL1        0.1279
      7 N         137.9150  140.6544  160.1646 N.ar    1  UNL1       -0.1621
      8 N         138.9273  141.2655  161.0877 N.ar    1  UNL1       -0.2141
      9 C         140.2746  140.7111  160.7305 C.ar    1  UNL1        0.1328
     10 N         141.5734  141.0508  161.3996 N.pl3   1  UNL1       -0.3424
     11 H         141.5894  141.6920  162.1465 H       1  UNL1        0.1437
     12 H         142.4098  140.6325  161.0920 H       1  UNL1        0.1437
     13 C         138.6423  142.2569  162.1767 C.ar    1  UNL1        0.1115
     14 C         137.9959  141.8044  163.4524 C.ar    1  UNL1        0.0215
     15 C         137.7109  142.7958  164.5414 C.ar    1  UNL1        0.0017
     16 C         138.0723  144.2396  164.3547 C.ar    1  UNL1        0.0024
     17 C         138.7187  144.6921  163.0789 C.ar    1  UNL1        0.0312
     18 C         139.0037  143.7007  161.9900 C.ar    1  UNL1        0.1577
     19 F         139.6501  144.1530  160.7142 F       1  UNL1       -0.2026
     20 C         143.1488  140.0398  155.8498 C.3     1  UNL1        0.0323
     21 C         143.1907  138.5460  155.9799 C.ar    1  UNL1       -0.0084
     22 C         144.2784  137.7645  155.3045 C.ar    1  UNL1       -0.0029
     23 C         144.3202  136.2708  155.4345 C.ar    1  UNL1        0.0043
     24 C         143.2744  135.5585  156.2400 C.ar    1  UNL1        0.0549
     25 C         142.1867  136.3399  156.9154 C.ar    1  UNL1        0.0189
     26 C         142.1448  137.8337  156.7853 C.ar    1  UNL1        0.0467
     27 C         143.3162  134.0647  156.3700 C.2     1  UNL1        0.2507
     28 O         142.0435  133.2722  156.3272 O.2     1  UNL1       -0.2698
     29 N         144.6309  133.3635  156.5430 N.am    1  UNL1       -0.2632
     30 H         145.4663  133.8836  156.5711 H       1  UNL1        0.1567
     31 C         144.6727  131.8697  156.6730 C.ar    1  UNL1        0.1767
     32 C         144.6309  130.8847  155.5425 C.ar    1  UNL1        0.0812
     33 C         144.6961  129.5049  156.1272 C.ar    1  UNL1        0.2152
     34 O         144.7782  129.6371  157.6191 O.2     1  UNL1       -0.3489
     35 N         144.7638  131.0986  157.9565 N.ar    1  UNL1       -0.0616
@<TRIPOS>BOND
     1    20    21    1
     2    21    22   ar
     3    22    23   ar
     4    23    24   ar
     5    24    27    1
     6    27    28    2
     7    27    29   am
     8    29    31    1
     9    31    32   ar
    10    32    33   ar
    11    33    34   ar
    12    34    35   ar
    13    24    25   ar
    14    25    26   ar
    15    26     1    1
    16     1     2   am
    17     2     3    2
    18     2     5    1
    19     5     6   ar
    20     6     7   ar
    21     7     8   ar
    22     8    13    1
    23    13    14   ar
    24    14    15   ar
    25    15    16   ar
    26    16    17   ar
    27    17    18   ar
    28    18    19    1
    29     8     9   ar
    30     9    10    1
    31    26    21   ar
    32     9     5   ar
    33    35    31   ar
    34    18    13   ar
    35    29    30    1
    36     1     4    1
    37    10    11    1
    38    10    12    1
