@<TRIPOS>MOLECULE
*****
 29 32 0 0 0
SMALL
GASTEIGER

@<TRIPOS>ATOM
      1 C         139.4966  141.7120  165.2160 C.ar    1  UNL1        0.0842
      2 C         139.4389  140.4486  164.4095 C.ar    1  UNL1        0.0385
      3 C         139.0984  140.5056  162.9498 C.ar    1  UNL1        0.0918
      4 N         139.0407  139.2421  162.1432 N.ar    1  UNL1       -0.2250
      5 C         138.7002  139.2991  160.6835 C.ar    1  UNL1        0.1808
      6 N         138.4175  140.6195  160.0303 N.ar    1  UNL1       -0.2761
      7 C         138.0770  140.6764  158.5705 C.3     1  UNL1        0.1351
      8 C         138.4752  141.8828  160.8368 C.ar    1  UNL1        0.2662
      9 O         138.1924  143.2032  160.1836 O.2     1  UNL1       -0.2668
     10 C         138.8156  141.8259  162.2966 C.ar    1  UNL1        0.1051
     11 C         138.8734  143.0893  163.1031 C.ar    1  UNL1        0.1345
     12 N         139.2138  143.0323  164.5628 N.ar    1  UNL1       -0.2307
     13 C         140.8585  141.4843  171.0550 C.3     1  UNL1        0.0310
     14 C         140.5180  141.5412  169.5953 C.ar    1  UNL1       -0.0218
     15 C         139.9415  140.3367  168.9121 C.ar    1  UNL1       -0.0042
     16 C         139.6010  140.3936  167.4523 C.ar    1  UNL1        0.0012
     17 C         139.8370  141.6550  166.6758 C.ar    1  UNL1        0.0177
     18 C         140.4135  142.8596  167.3590 C.ar    1  UNL1        0.0012
     19 C         140.7540  142.8027  168.8187 C.ar    1  UNL1       -0.0042
     20 N         138.5906  144.4097  162.4499 N.pl3   1  UNL1       -0.3179
     21 H         137.7101  144.5792  162.0434 H       1  UNL1        0.1482
     22 C         139.6493  145.4717  162.4160 C.3     1  UNL1        0.0895
     23 C         141.0974  145.0902  162.5043 C.3     1  UNL1        0.0353
     24 C         141.8636  145.3425  163.7688 C.3     1  UNL1        0.0045
     25 C         143.3116  144.9611  163.8572 C.3     1  UNL1        0.0172
     26 C         143.9934  144.3274  162.6809 C.3     1  UNL1        0.0686
     27 N         143.2271  144.0750  161.4163 N.3     1  UNL1       -0.2974
     28 C         141.7791  144.4565  161.3280 C.3     1  UNL1        0.0702
     29 H         143.2791  143.0725  161.2356 H       1  UNL1        0.1232
@<TRIPOS>BOND
     1    13    14    1
     2    14    15   ar
     3    15    16   ar
     4    16    17   ar
     5    17     1    1
     6     1     2   ar
     7     2     3   ar
     8     3     4   ar
     9     4     5   ar
    10     5     6   ar
    11     6     7    1
    12     6     8   ar
    13     8     9    2
    14     8    10   ar
    15    10    11   ar
    16    11    20    1
    17    20    22    1
    18    23    22    1
    19    23    24    1
    20    24    25    1
    21    25    26    1
    22    26    27    1
    23    27    28    1
    24    11    12   ar
    25    17    18   ar
    26    18    19   ar
    27    19    14   ar
    28    12     1   ar
    29    10     3   ar
    30    28    23    1
    31    20    21    1
    32    27    29    1
@<TRIPOS>MOLECULE
*****
 29 32 0 0 0
SMALL
GASTEIGER

@<TRIPOS>ATOM
      1 C         140.1093  142.3810  165.0398 C.ar    1  UNL1        0.0842
      2 C         139.3577  141.7194  163.9230 C.ar    1  UNL1        0.0385
      3 C         139.4401  142.2740  162.5317 C.ar    1  UNL1        0.0918
      4 N         138.6885  141.6124  161.4148 N.ar    1  UNL1       -0.2250
      5 C         138.7710  142.1669  160.0236 C.ar    1  UNL1        0.1808
      6 N         139.6051  143.3830  159.7491 N.ar    1  UNL1       -0.2761
      7 C         139.6875  143.9375  158.3577 C.3     1  UNL1        0.1351
      8 C         140.3567  144.0446  160.8659 C.ar    1  UNL1        0.2662
      9 O         141.1909  145.2607  160.5914 O.2     1  UNL1       -0.2668
     10 C         140.2743  143.4901  162.2572 C.ar    1  UNL1        0.1051
     11 C         141.0259  144.1516  163.3740 C.ar    1  UNL1        0.1345
     12 N         140.9434  143.5971  164.7653 N.ar    1  UNL1       -0.2307
     13 C         139.7795  140.1629  170.6050 C.3     1  UNL1        0.0310
     14 C         139.8619  140.7174  169.2137 C.ar    1  UNL1       -0.0218
     15 C         140.4012  142.0988  168.9877 C.ar    1  UNL1       -0.0042
     16 C         140.4837  142.6533  167.5963 C.ar    1  UNL1        0.0012
     17 C         140.0269  141.8265  166.4311 C.ar    1  UNL1        0.0177
     18 C         139.4876  140.4452  166.6572 C.ar    1  UNL1        0.0012
     19 C         139.4051  139.8906  168.0485 C.ar    1  UNL1       -0.0042
     20 N         141.8601  145.3677  163.0996 N.pl3   1  UNL1       -0.3179
     21 H         141.4466  146.1695  162.7054 H       1  UNL1        0.1482
     22 C         143.3241  145.3622  163.4258 C.3     1  UNL1        0.0895
     23 C         144.1054  144.0843  163.3463 C.3     1  UNL1        0.0353
     24 C         144.4675  143.3472  164.6015 C.3     1  UNL1        0.0045
     25 C         145.2488  142.0693  164.5221 C.3     1  UNL1        0.0172
     26 C         145.6681  141.5283  163.1873 C.3     1  UNL1        0.0686
     27 N         145.3060  142.2653  161.9320 N.3     1  UNL1       -0.2974
     28 C         144.5247  143.5433  162.0115 C.3     1  UNL1        0.0702
     29 H         144.7599  141.6214  161.3596 H       1  UNL1        0.1232
@<TRIPOS>BOND
     1    13    14    1
     2    14    15   ar
     3    15    16   ar
     4    16    17   ar
     5    17     1    1
     6     1     2   ar
     7     2     3   ar
     8     3     4   ar
     9     4     5   ar
    10     5     6   ar
    11     6     7    1
    12     6     8   ar
    13     8     9    2
    14     8    10   ar
    15    10    11   ar
    16    11    20    1
    17    20    22    1
    18    23    22    1
    19    23    24    1
    20    24    25    1
    21    25    26    1
    22    26    27    1
    23    27    28    1
    24    11    12   ar
    25    17    18   ar
    26    18    19   ar
    27    19    14   ar
    28    12     1   ar
    29    10     3   ar
    30    28    23    1
    31    20    21    1
    32    27    29    1
@<TRIPOS>MOLECULE
*****
 29 32 0 0 0
SMALL
GASTEIGER

@<TRIPOS>ATOM
      1 C         141.6986  139.5046  165.3094 C.ar    1  UNL1        0.0842
      2 C         140.6519  139.0877  164.3191 C.ar    1  UNL1        0.0385
      3 C         141.0098  138.9308  162.8709 C.ar    1  UNL1        0.0918
      4 N         139.9631  138.5139  161.8806 N.ar    1  UNL1       -0.2250
      5 C         140.3209  138.3571  160.4324 C.ar    1  UNL1        0.1808
      6 N         141.7254  138.6172  159.9745 N.ar    1  UNL1       -0.2761
      7 C         142.0833  138.4604  158.5262 C.3     1  UNL1        0.1351
      8 C         142.7721  139.0341  160.9647 C.ar    1  UNL1        0.2662
      9 O         144.1766  139.2942  160.5068 O.2     1  UNL1       -0.2668
     10 C         142.4143  139.1910  162.4130 C.ar    1  UNL1        0.1051
     11 C         143.4609  139.6079  163.4033 C.ar    1  UNL1        0.1345
     12 N         143.1031  139.7647  164.8514 N.ar    1  UNL1       -0.2307
     13 C         140.2672  140.1319  171.1023 C.3     1  UNL1        0.0310
     14 C         140.6251  139.9750  169.6541 C.ar    1  UNL1       -0.0218
     15 C         142.0395  139.6682  169.2600 C.ar    1  UNL1       -0.0042
     16 C         142.3973  139.5114  167.8118 C.ar    1  UNL1        0.0012
     17 C         141.3407  139.6614  166.7577 C.ar    1  UNL1        0.0177
     18 C         139.9263  139.9683  167.1518 C.ar    1  UNL1        0.0012
     19 C         139.5685  140.1251  168.6000 C.ar    1  UNL1       -0.0042
     20 N         144.8654  139.8680  162.9453 N.pl3   1  UNL1       -0.3179
     21 H         145.2978  139.2530  162.3096 H       1  UNL1        0.1482
     22 C         145.6112  141.0651  163.4559 C.3     1  UNL1        0.0895
     23 C         144.9488  142.4108  163.4717 C.3     1  UNL1        0.0353
     24 C         144.6619  143.0902  164.7778 C.3     1  UNL1        0.0045
     25 C         143.9995  144.4359  164.7936 C.3     1  UNL1        0.0172
     26 C         143.6239  145.1022  163.5033 C.3     1  UNL1        0.0686
     27 N         143.9107  144.4228  162.1971 N.3     1  UNL1       -0.2974
     28 C         144.5731  143.0771  162.1813 C.3     1  UNL1        0.0702
     29 H         144.5099  145.0522  161.6631 H       1  UNL1        0.1232
@<TRIPOS>BOND
     1    13    14    1
     2    14    15   ar
     3    15    16   ar
     4    16    17   ar
     5    17     1    1
     6     1     2   ar
     7     2     3   ar
     8     3     4   ar
     9     4     5   ar
    10     5     6   ar
    11     6     7    1
    12     6     8   ar
    13     8     9    2
    14     8    10   ar
    15    10    11   ar
    16    11    20    1
    17    20    22    1
    18    23    22    1
    19    23    24    1
    20    24    25    1
    21    25    26    1
    22    26    27    1
    23    27    28    1
    24    11    12   ar
    25    17    18   ar
    26    18    19   ar
    27    19    14   ar
    28    12     1   ar
    29    10     3   ar
    30    28    23    1
    31    20    21    1
    32    27    29    1
@<TRIPOS>MOLECULE
*****
 29 32 0 0 0
SMALL
GASTEIGER

@<TRIPOS>ATOM
      1 C         141.2621  139.3925  165.3031 C.ar    1  UNL1        0.0842
      2 C         142.5567  139.0095  164.6494 C.ar    1  UNL1        0.0385
      3 C         142.5942  138.7051  163.1811 C.ar    1  UNL1        0.0918
      4 N         143.8888  138.3220  162.5274 N.ar    1  UNL1       -0.2250
      5 C         143.9263  138.0176  161.0591 C.ar    1  UNL1        0.1808
      6 N         142.6692  138.0962  160.2445 N.ar    1  UNL1       -0.2761
      7 C         142.7067  137.7918  158.7761 C.3     1  UNL1        0.1351
      8 C         141.3746  138.4793  160.8982 C.ar    1  UNL1        0.2662
      9 O         140.1176  138.5579  160.0836 O.2     1  UNL1       -0.2668
     10 C         141.3371  138.7837  162.3665 C.ar    1  UNL1        0.1051
     11 C         140.0425  139.1668  163.0202 C.ar    1  UNL1        0.1345
     12 N         140.0051  139.4712  164.4885 N.ar    1  UNL1       -0.2307
     13 C         141.1119  140.6102  171.1763 C.3     1  UNL1        0.0310
     14 C         141.1495  140.3058  169.7081 C.ar    1  UNL1       -0.0218
     15 C         142.4272  139.8478  169.0695 C.ar    1  UNL1       -0.0042
     16 C         142.4647  139.5433  167.6012 C.ar    1  UNL1        0.0012
     17 C         141.2246  139.6969  166.7714 C.ar    1  UNL1        0.0177
     18 C         139.9469  140.1550  167.4100 C.ar    1  UNL1        0.0012
     19 C         139.9094  140.4594  168.8783 C.ar    1  UNL1       -0.0042
     20 N         138.7855  139.2454  162.2056 N.pl3   1  UNL1       -0.3179
     21 H         138.7107  138.7375  161.3655 H       1  UNL1        0.1482
     22 C         137.6423  140.0978  162.6709 C.3     1  UNL1        0.0895
     23 C         137.8167  141.5823  162.7975 C.3     1  UNL1        0.0353
     24 C         137.7175  142.2371  164.1433 C.3     1  UNL1        0.0045
     25 C         137.8918  143.7216  164.2698 C.3     1  UNL1        0.0172
     26 C         138.1653  144.5512  163.0505 C.3     1  UNL1        0.0686
     27 N         138.2645  143.8964  161.7045 N.3     1  UNL1       -0.2974
     28 C         138.0901  142.4120  161.5780 C.3     1  UNL1        0.0702
     29 H         139.1903  144.1165  161.3375 H       1  UNL1        0.1232
@<TRIPOS>BOND
     1    13    14    1
     2    14    15   ar
     3    15    16   ar
     4    16    17   ar
     5    17     1    1
     6     1     2   ar
     7     2     3   ar
     8     3     4   ar
     9     4     5   ar
    10     5     6   ar
    11     6     7    1
    12     6     8   ar
    13     8     9    2
    14     8    10   ar
    15    10    11   ar
    16    11    20    1
    17    20    22    1
    18    23    22    1
    19    23    24    1
    20    24    25    1
    21    25    26    1
    22    26    27    1
    23    27    28    1
    24    11    12   ar
    25    17    18   ar
    26    18    19   ar
    27    19    14   ar
    28    12     1   ar
    29    10     3   ar
    30    28    23    1
    31    20    21    1
    32    27    29    1
@<TRIPOS>MOLECULE
*****
 29 32 0 0 0
SMALL
GASTEIGER

@<TRIPOS>ATOM
      1 C         140.2015  142.1406  164.8844 C.ar    1  UNL1        0.0842
      2 C         139.9255  143.5771  164.5526 C.ar    1  UNL1        0.0385
      3 C         140.0416  144.0551  163.1356 C.ar    1  UNL1        0.0918
      4 N         139.7655  145.4917  162.8036 N.ar    1  UNL1       -0.2250
      5 C         139.8816  145.9697  161.3866 C.ar    1  UNL1        0.1808
      6 N         140.2737  145.0112  160.3015 N.ar    1  UNL1       -0.2761
      7 C         140.3898  145.4893  158.8844 C.3     1  UNL1        0.1351
      8 C         140.5497  143.5747  160.6333 C.ar    1  UNL1        0.2662
      9 O         140.9419  142.6162  159.5482 O.2     1  UNL1       -0.2668
     10 C         140.4337  143.0966  162.0504 C.ar    1  UNL1        0.1051
     11 C         140.7097  141.6601  162.3823 C.ar    1  UNL1        0.1345
     12 N         140.5936  141.1821  163.7993 N.ar    1  UNL1       -0.2307
     13 C         139.7372  140.2282  170.5526 C.3     1  UNL1        0.0310
     14 C         139.8533  140.7063  169.1356 C.ar    1  UNL1       -0.0218
     15 C         140.4644  142.0447  168.8433 C.ar    1  UNL1       -0.0042
     16 C         140.5805  142.5227  167.4262 C.ar    1  UNL1        0.0012
     17 C         140.0855  141.6625  166.3015 C.ar    1  UNL1        0.0177
     18 C         139.4744  140.3242  166.5938 C.ar    1  UNL1        0.0012
     19 C         139.3583  139.8461  168.0108 C.ar    1  UNL1       -0.0042
     20 N         141.1018  140.7016  161.2971 N.pl3   1  UNL1       -0.3179
     21 H         140.5350  140.6040  160.4981 H       1  UNL1        0.1482
     22 C         142.3575  139.8918  161.4294 C.3     1  UNL1        0.0895
     23 C         143.5477  140.4643  162.1404 C.3     1  UNL1        0.0353
     24 C         143.9466  139.9309  163.4844 C.3     1  UNL1        0.0045
     25 C         145.1369  140.5033  164.1954 C.3     1  UNL1        0.0172
     26 C         145.9283  141.6092  163.5624 C.3     1  UNL1        0.0686
     27 N         145.5294  142.1427  162.2184 N.3     1  UNL1       -0.2974
     28 C         144.3391  141.5703  161.5074 C.3     1  UNL1        0.0702
     29 H         146.3310  142.0144  161.6009 H       1  UNL1        0.1232
@<TRIPOS>BOND
     1    13    14    1
     2    14    15   ar
     3    15    16   ar
     4    16    17   ar
     5    17     1    1
     6     1     2   ar
     7     2     3   ar
     8     3     4   ar
     9     4     5   ar
    10     5     6   ar
    11     6     7    1
    12     6     8   ar
    13     8     9    2
    14     8    10   ar
    15    10    11   ar
    16    11    20    1
    17    20    22    1
    18    23    22    1
    19    23    24    1
    20    24    25    1
    21    25    26    1
    22    26    27    1
    23    27    28    1
    24    11    12   ar
    25    17    18   ar
    26    18    19   ar
    27    19    14   ar
    28    12     1   ar
    29    10     3   ar
    30    28    23    1
    31    20    21    1
    32    27    29    1
@<TRIPOS>MOLECULE
*****
 29 32 0 0 0
SMALL
GASTEIGER

@<TRIPOS>ATOM
      1 C         142.2515  142.8674  165.1938 C.ar    1  UNL1        0.0842
      2 C         143.0873  141.9465  164.3553 C.ar    1  UNL1        0.0385
      3 C         143.2444  142.2053  162.8862 C.ar    1  UNL1        0.0918
      4 N         144.0803  141.2843  162.0475 N.ar    1  UNL1       -0.2250
      5 C         144.2373  141.5431  160.5784 C.ar    1  UNL1        0.1808
      6 N         143.5585  142.7227  159.9478 N.ar    1  UNL1       -0.2761
      7 C         143.7156  142.9814  158.4786 C.3     1  UNL1        0.1351
      8 C         142.7226  143.6436  160.7864 C.ar    1  UNL1        0.2662
      9 O         142.0438  144.8233  160.1558 O.2     1  UNL1       -0.2668
     10 C         142.5656  143.3849  162.2556 C.ar    1  UNL1        0.1051
     11 C         141.7297  144.3058  163.0941 C.ar    1  UNL1        0.1345
     12 N         141.5726  144.0471  164.5632 N.ar    1  UNL1       -0.2307
     13 C         141.6230  141.8327  171.0704 C.3     1  UNL1        0.0310
     14 C         141.7802  142.0913  169.6013 C.ar    1  UNL1       -0.0218
     15 C         143.1470  142.1018  168.9836 C.ar    1  UNL1       -0.0042
     16 C         143.3041  142.3605  167.5144 C.ar    1  UNL1        0.0012
     17 C         142.0944  142.6087  166.6630 C.ar    1  UNL1        0.0177
     18 C         140.7275  142.5983  167.2807 C.ar    1  UNL1        0.0012
     19 C         140.5704  142.3396  168.7498 C.ar    1  UNL1       -0.0042
     20 N         141.0509  145.4855  162.4635 N.pl3   1  UNL1       -0.3179
     21 H         141.5843  146.2528  162.1540 H       1  UNL1        0.1482
     22 C         139.5594  145.4959  162.3046 C.3     1  UNL1        0.0895
     23 C         138.7648  144.2586  162.6010 C.3     1  UNL1        0.0353
     24 C         138.2005  144.0405  163.9735 C.3     1  UNL1        0.0045
     25 C         137.4060  142.8032  164.2699 C.3     1  UNL1        0.0172
     26 C         137.1758  141.7840  163.1937 C.3     1  UNL1        0.0686
     27 N         137.7401  142.0021  161.8210 N.3     1  UNL1       -0.2974
     28 C         138.5346  143.2394  161.5247 C.3     1  UNL1        0.0702
     29 H         136.9515  141.9966  161.1741 H       1  UNL1        0.1232
@<TRIPOS>BOND
     1    13    14    1
     2    14    15   ar
     3    15    16   ar
     4    16    17   ar
     5    17     1    1
     6     1     2   ar
     7     2     3   ar
     8     3     4   ar
     9     4     5   ar
    10     5     6   ar
    11     6     7    1
    12     6     8   ar
    13     8     9    2
    14     8    10   ar
    15    10    11   ar
    16    11    20    1
    17    20    22    1
    18    23    22    1
    19    23    24    1
    20    24    25    1
    21    25    26    1
    22    26    27    1
    23    27    28    1
    24    11    12   ar
    25    17    18   ar
    26    18    19   ar
    27    19    14   ar
    28    12     1   ar
    29    10     3   ar
    30    28    23    1
    31    20    21    1
    32    27    29    1
@<TRIPOS>MOLECULE
*****
 29 32 0 0 0
SMALL
GASTEIGER

@<TRIPOS>ATOM
      1 C         141.5119  140.4791  166.0690 C.ar    1  UNL1        0.0842
      2 C         140.5690  139.8755  165.0707 C.ar    1  UNL1        0.0385
      3 C         141.1003  139.2904  163.7959 C.ar    1  UNL1        0.0918
      4 N         140.1574  138.6868  162.7975 N.ar    1  UNL1       -0.2250
      5 C         140.6886  138.1017  161.5226 C.ar    1  UNL1        0.1808
      6 N         142.1628  138.1201  161.2460 N.ar    1  UNL1       -0.2761
      7 C         142.6941  137.5349  159.9711 C.3     1  UNL1        0.1351
      8 C         143.1057  138.7236  162.2443 C.ar    1  UNL1        0.2662
      9 O         144.5799  138.7421  161.9678 O.2     1  UNL1       -0.2668
     10 C         142.5744  139.3088  163.5193 C.ar    1  UNL1        0.1051
     11 C         143.5173  139.9124  164.5176 C.ar    1  UNL1        0.1345
     12 N         142.9860  140.4975  165.7924 N.ar    1  UNL1       -0.2307
     13 C         139.3868  142.8196  171.1687 C.3     1  UNL1        0.0310
     14 C         139.9181  142.2345  169.8938 C.ar    1  UNL1       -0.0218
     15 C         140.9155  142.9999  169.0757 C.ar    1  UNL1       -0.0042
     16 C         141.4468  142.4148  167.8008 C.ar    1  UNL1        0.0012
     17 C         140.9806  141.0642  167.3440 C.ar    1  UNL1        0.0177
     18 C         139.9832  140.2988  168.1620 C.ar    1  UNL1        0.0012
     19 C         139.4519  140.8839  169.4369 C.ar    1  UNL1       -0.0042
     20 N         144.9915  139.9308  164.2410 N.pl3   1  UNL1       -0.3179
     21 H         145.4952  139.0859  164.1997 H       1  UNL1        0.1482
     22 C         145.6982  141.2365  164.0273 C.3     1  UNL1        0.0895
     23 C         144.9206  142.4520  163.6176 C.3     1  UNL1        0.0353
     24 C         144.5339  143.4759  164.6434 C.3     1  UNL1        0.0045
     25 C         143.7563  144.6914  164.2337 C.3     1  UNL1        0.0172
     26 C         143.3652  144.8830  162.7984 C.3     1  UNL1        0.0686
     27 N         143.7519  143.8591  161.7725 N.3     1  UNL1       -0.2974
     28 C         144.5295  142.6436  162.1822 C.3     1  UNL1        0.0702
     29 H         144.3105  144.3429  161.0695 H       1  UNL1        0.1232
@<TRIPOS>BOND
     1    13    14    1
     2    14    15   ar
     3    15    16   ar
     4    16    17   ar
     5    17     1    1
     6     1     2   ar
     7     2     3   ar
     8     3     4   ar
     9     4     5   ar
    10     5     6   ar
    11     6     7    1
    12     6     8   ar
    13     8     9    2
    14     8    10   ar
    15    10    11   ar
    16    11    20    1
    17    20    22    1
    18    23    22    1
    19    23    24    1
    20    24    25    1
    21    25    26    1
    22    26    27    1
    23    27    28    1
    24    11    12   ar
    25    17    18   ar
    26    18    19   ar
    27    19    14   ar
    28    12     1   ar
    29    10     3   ar
    30    28    23    1
    31    20    21    1
    32    27    29    1
@<TRIPOS>MOLECULE
*****
 29 32 0 0 0
SMALL
GASTEIGER

@<TRIPOS>ATOM
      1 C         139.5648  141.9248  162.0576 C.ar    1  UNL1        0.0842
      2 C         138.8974  141.8184  160.7186 C.ar    1  UNL1        0.0385
      3 C         139.2931  142.7453  159.6076 C.ar    1  UNL1        0.0918
      4 N         138.6257  142.6389  158.2684 N.ar    1  UNL1       -0.2250
      5 C         139.0214  143.5658  157.1575 C.ar    1  UNL1        0.1808
      6 N         140.0845  144.5991  157.3856 N.ar    1  UNL1       -0.2761
      7 C         140.4803  145.5260  156.2746 C.3     1  UNL1        0.1351
      8 C         140.7520  144.7055  158.7247 C.ar    1  UNL1        0.2662
      9 O         141.8151  145.7388  158.9528 O.2     1  UNL1       -0.2668
     10 C         140.3562  143.7786  159.8358 C.ar    1  UNL1        0.1051
     11 C         141.0237  143.8850  161.1748 C.ar    1  UNL1        0.1345
     12 N         140.6279  142.9581  162.2858 N.ar    1  UNL1       -0.2307
     13 C         137.9820  138.2172  166.5016 C.3     1  UNL1        0.0310
     14 C         138.3776  139.1441  165.3907 C.ar    1  UNL1       -0.0218
     15 C         138.4774  140.6192  165.6442 C.ar    1  UNL1       -0.0042
     16 C         138.8732  141.5461  164.5332 C.ar    1  UNL1        0.0012
     17 C         139.1691  140.9979  163.1687 C.ar    1  UNL1        0.0177
     18 C         139.0693  139.5229  162.9151 C.ar    1  UNL1        0.0012
     19 C         138.6736  138.5960  164.0261 C.ar    1  UNL1       -0.0042
     20 N         142.0868  144.9183  161.4030 N.pl3   1  UNL1       -0.3179
     21 H         142.2782  145.5893  160.7084 H       1  UNL1        0.1482
     22 C         142.8584  144.9292  162.6892 C.3     1  UNL1        0.0895
     23 C         143.8471  143.8393  162.9800 C.3     1  UNL1        0.0353
     24 C         144.0796  143.3951  164.3937 C.3     1  UNL1        0.0045
     25 C         145.0683  142.3053  164.6845 C.3     1  UNL1        0.0172
     26 C         145.8247  141.6596  163.5616 C.3     1  UNL1        0.0686
     27 N         145.5923  142.1038  162.1478 N.3     1  UNL1       -0.2974
     28 C         144.6035  143.1937  161.8570 C.3     1  UNL1        0.0702
     29 H         145.2859  141.2818  161.6274 H       1  UNL1        0.1232
@<TRIPOS>BOND
     1    13    14    1
     2    14    15   ar
     3    15    16   ar
     4    16    17   ar
     5    17     1    1
     6     1     2   ar
     7     2     3   ar
     8     3     4   ar
     9     4     5   ar
    10     5     6   ar
    11     6     7    1
    12     6     8   ar
    13     8     9    2
    14     8    10   ar
    15    10    11   ar
    16    11    20    1
    17    20    22    1
    18    23    22    1
    19    23    24    1
    20    24    25    1
    21    25    26    1
    22    26    27    1
    23    27    28    1
    24    11    12   ar
    25    17    18   ar
    26    18    19   ar
    27    19    14   ar
    28    12     1   ar
    29    10     3   ar
    30    28    23    1
    31    20    21    1
    32    27    29    1
@<TRIPOS>MOLECULE
*****
 29 32 0 0 0
SMALL
GASTEIGER

@<TRIPOS>ATOM
      1 C         142.1018  141.1469  165.5755 C.ar    1  UNL1        0.0842
      2 C         142.3311  140.0766  164.5500 C.ar    1  UNL1        0.0385
      3 C         142.7866  140.4459  163.1694 C.ar    1  UNL1        0.0918
      4 N         143.0160  139.3756  162.1438 N.ar    1  UNL1       -0.2250
      5 C         143.4715  139.7449  160.7632 C.ar    1  UNL1        0.1808
      6 N         143.6977  141.1846  160.4082 N.ar    1  UNL1       -0.2761
      7 C         144.1532  141.5540  159.0275 C.3     1  UNL1        0.1351
      8 C         143.4684  142.2550  161.4337 C.ar    1  UNL1        0.2662
      9 O         143.6945  143.6947  161.0786 O.2     1  UNL1       -0.2668
     10 C         143.0128  141.8856  162.8143 C.ar    1  UNL1        0.1051
     11 C         142.7835  142.9560  163.8398 C.ar    1  UNL1        0.1345
     12 N         142.3280  142.5866  165.2204 N.ar    1  UNL1       -0.2307
     13 C         140.2798  139.6695  171.0980 C.3     1  UNL1        0.0310
     14 C         140.7352  140.0389  169.7174 C.ar    1  UNL1       -0.0218
     15 C         139.8376  140.8386  168.8203 C.ar    1  UNL1       -0.0042
     16 C         140.2932  141.2080  167.4397 C.ar    1  UNL1        0.0012
     17 C         141.6462  140.7776  166.9561 C.ar    1  UNL1        0.0177
     18 C         142.5438  139.9778  167.8532 C.ar    1  UNL1        0.0012
     19 C         142.0884  139.6085  169.2338 C.ar    1  UNL1       -0.0042
     20 N         143.0096  144.3957  163.4848 N.pl3   1  UNL1       -0.3179
     21 H         143.8983  144.6949  163.1846 H       1  UNL1        0.1482
     22 C         141.8820  145.3795  163.5870 C.3     1  UNL1        0.0895
     23 C         140.4655  144.9174  163.4134 C.3     1  UNL1        0.0353
     24 C         139.5778  144.7541  164.6114 C.3     1  UNL1        0.0045
     25 C         138.1613  144.2921  164.4379 C.3     1  UNL1        0.0172
     26 C         137.6326  143.9932  163.0664 C.3     1  UNL1        0.0686
     27 N         138.5203  144.1565  161.8683 N.3     1  UNL1       -0.2974
     28 C         139.9368  144.6185  162.0418 C.3     1  UNL1        0.0702
     29 H         138.0640  144.8303  161.2533 H       1  UNL1        0.1232
@<TRIPOS>BOND
     1    13    14    1
     2    14    15   ar
     3    15    16   ar
     4    16    17   ar
     5    17     1    1
     6     1     2   ar
     7     2     3   ar
     8     3     4   ar
     9     4     5   ar
    10     5     6   ar
    11     6     7    1
    12     6     8   ar
    13     8     9    2
    14     8    10   ar
    15    10    11   ar
    16    11    20    1
    17    20    22    1
    18    23    22    1
    19    23    24    1
    20    24    25    1
    21    25    26    1
    22    26    27    1
    23    27    28    1
    24    11    12   ar
    25    17    18   ar
    26    18    19   ar
    27    19    14   ar
    28    12     1   ar
    29    10     3   ar
    30    28    23    1
    31    20    21    1
    32    27    29    1
