@<TRIPOS>MOLECULE
*****
 36 41 0 0 0
SMALL
GASTEIGER

@<TRIPOS>ATOM
      1 C         137.8833  141.5653  156.4934 C.ar    1  UNL1        0.1725
      2 C         138.8443  142.5227  157.1336 C.ar    1  UNL1        0.0428
      3 C         138.9229  143.9410  156.6519 C.ar    1  UNL1        0.0340
      4 C         139.8840  144.8984  157.2922 C.ar    1  UNL1        0.0477
      5 C         139.9626  146.3167  156.8105 C.ar    1  UNL1        0.0365
      6 C         139.0802  146.7778  155.6886 C.ar    1  UNL1        0.1169
      7 N         138.1191  145.8205  155.0483 N.ar    1  UNL1       -0.2421
      8 C         138.0405  144.4021  155.5300 C.ar    1  UNL1        0.0858
      9 C         137.0795  143.4448  154.8897 C.ar    1  UNL1        0.0592
     10 C         137.0009  142.0264  155.3714 C.ar    1  UNL1        0.1735
     11 C         139.1588  148.1962  155.2069 C.ar    1  UNL1        0.1624
     12 C         139.8216  148.6633  153.9449 C.ar    1  UNL1        0.0418
     13 C         139.6608  150.1523  153.8607 C.ar    1  UNL1        0.0361
     14 C         138.8987  150.6054  155.0706 C.ar    1  UNL1        0.1234
     15 C         138.5144  152.0192  155.3920 C.3     1  UNL1        0.0725
     16 O         138.5884  149.3965  155.9025 O.2     1  UNL1       -0.4562
     17 C         138.9415  139.5555  157.7547 C.3     1  UNL1        0.2526
     18 O         137.8047  140.1470  156.9750 O.3     1  UNL1       -0.4684
     19 N         140.7664  144.4373  158.4142 N.pl3   1  UNL1       -0.3339
     20 H         141.6661  144.0875  158.2209 H       1  UNL1        0.1468
     21 C         140.2779  144.5092  159.8306 C.3     1  UNL1        0.0718
     22 C         139.8428  143.2601  160.5382 C.3     1  UNL1        0.0368
     23 C         139.3544  143.3320  161.9546 C.3     1  UNL1        0.0738
     24 N         139.3010  144.6528  162.6634 N.3     1  UNL1       -0.2714
     25 C         138.8126  144.7247  164.0799 C.3     1  UNL1        0.0896
     26 C         139.7361  145.9018  161.9559 C.3     1  UNL1        0.0738
     27 C         140.2246  145.8300  160.5395 C.3     1  UNL1        0.0368
     28 O         136.0398  141.0691  154.7311 O.3     1  UNL1       -0.4761
     29 C         134.7330  140.7591  155.3990 C.3     1  UNL1        0.1662
     30 C         134.3133  139.9243  156.5724 C.3     1  UNL1        0.0463
     31 C         132.8848  140.3207  156.3436 C.3     1  UNL1        0.0364
     32 C         133.3046  141.1556  155.1701 C.3     1  UNL1        0.0463
     33 C         132.4652  139.4859  157.5170 C.3     1  UNL1        0.0736
     34 N         131.0368  139.8823  157.2881 N.3     1  UNL1       -0.2714
     35 C         129.7299  139.5723  157.9561 C.3     1  UNL1        0.0896
     36 C         131.4564  140.7171  156.1148 C.3     1  UNL1        0.0736
@<TRIPOS>BOND
     1    17    18    1
     2    18     1    1
     3     1     2   ar
     4     2     3   ar
     5     3     4   ar
     6     4    19    1
     7    19    21    1
     8    21    22    1
     9    22    23    1
    10    23    24    1
    11    24    25    1
    12    24    26    1
    13    26    27    1
    14     4     5   ar
    15     5     6   ar
    16     6    11    1
    17    11    12   ar
    18    12    13   ar
    19    13    14   ar
    20    14    15    1
    21    14    16   ar
    22     6     7   ar
    23     7     8   ar
    24     8     9   ar
    25     9    10   ar
    26    10    28    1
    27    28    29    1
    28    29    30    1
    29    30    31    1
    30    31    32    1
    31    31    33    1
    32    33    34    1
    33    34    35    1
    34    34    36    1
    35    10     1   ar
    36    32    29    1
    37     8     3   ar
    38    36    31    1
    39    27    21    1
    40    16    11   ar
    41    19    20    1
@<TRIPOS>MOLECULE
*****
 36 41 0 0 0
SMALL
GASTEIGER

@<TRIPOS>ATOM
      1 C         137.4418  142.2123  155.0587 C.ar    1  UNL1        0.1725
      2 C         138.3562  143.3924  155.2039 C.ar    1  UNL1        0.0428
      3 C         138.9297  143.7361  156.5467 C.ar    1  UNL1        0.0340
      4 C         139.8441  144.9164  156.6918 C.ar    1  UNL1        0.0477
      5 C         140.4176  145.2600  158.0346 C.ar    1  UNL1        0.0365
      6 C         140.0768  144.4235  159.2321 C.ar    1  UNL1        0.1169
      7 N         139.1624  143.2434  159.0869 N.ar    1  UNL1       -0.2421
      8 C         138.5889  142.8997  157.7442 C.ar    1  UNL1        0.0858
      9 C         137.6745  141.7195  157.5990 C.ar    1  UNL1        0.0592
     10 C         137.1010  141.3758  156.2562 C.ar    1  UNL1        0.1735
     11 C         140.6503  144.7672  160.5749 C.ar    1  UNL1        0.1624
     12 C         139.9135  145.4179  161.7080 C.ar    1  UNL1        0.0418
     13 C         140.8692  145.5734  162.8537 C.ar    1  UNL1        0.0361
     14 C         142.1965  145.0188  162.4287 C.ar    1  UNL1        0.1234
     15 C         143.4406  144.9709  163.2652 C.3     1  UNL1        0.0725
     16 O         142.0612  144.5205  161.0203 O.2     1  UNL1       -0.4562
     17 C         136.0840  142.8931  152.9509 C.3     1  UNL1        0.2526
     18 O         136.8683  141.8686  153.7160 O.3     1  UNL1       -0.4684
     19 N         140.1850  145.7528  155.4943 N.pl3   1  UNL1       -0.3339
     20 H         140.6872  145.3583  154.7451 H       1  UNL1        0.1468
     21 C         139.7606  147.1905  155.4383 C.3     1  UNL1        0.0718
     22 C         138.9050  147.7630  156.5293 C.3     1  UNL1        0.0368
     23 C         138.4806  149.2006  156.4733 C.3     1  UNL1        0.0738
     24 N         138.9118  150.0657  155.3263 N.3     1  UNL1       -0.2714
     25 C         138.4874  151.5033  155.2702 C.3     1  UNL1        0.0896
     26 C         139.7673  149.4932  154.2353 C.3     1  UNL1        0.0738
     27 C         140.1917  148.0556  154.2913 C.3     1  UNL1        0.0368
     28 O         136.1866  140.1956  156.1111 O.3     1  UNL1       -0.4761
     29 C         134.7009  140.3985  156.0699 C.3     1  UNL1        0.1662
     30 C         133.5294  139.8094  156.7983 C.3     1  UNL1        0.0463
     31 C         132.5999  140.6854  156.0117 C.3     1  UNL1        0.0364
     32 C         133.7714  141.2745  155.2834 C.3     1  UNL1        0.0463
     33 C         131.4284  140.0962  156.7402 C.3     1  UNL1        0.0736
     34 N         130.4989  140.9722  155.9536 N.3     1  UNL1       -0.2714
     35 C         129.0132  141.1750  155.9125 C.3     1  UNL1        0.0896
     36 C         131.6704  141.5613  155.2253 C.3     1  UNL1        0.0736
@<TRIPOS>BOND
     1    17    18    1
     2    18     1    1
     3     1     2   ar
     4     2     3   ar
     5     3     4   ar
     6     4    19    1
     7    19    21    1
     8    21    22    1
     9    22    23    1
    10    23    24    1
    11    24    25    1
    12    24    26    1
    13    26    27    1
    14     4     5   ar
    15     5     6   ar
    16     6    11    1
    17    11    12   ar
    18    12    13   ar
    19    13    14   ar
    20    14    15    1
    21    14    16   ar
    22     6     7   ar
    23     7     8   ar
    24     8     9   ar
    25     9    10   ar
    26    10    28    1
    27    28    29    1
    28    29    30    1
    29    30    31    1
    30    31    32    1
    31    31    33    1
    32    33    34    1
    33    34    35    1
    34    34    36    1
    35    10     1   ar
    36    32    29    1
    37     8     3   ar
    38    36    31    1
    39    27    21    1
    40    16    11   ar
    41    19    20    1
@<TRIPOS>MOLECULE
*****
 36 41 0 0 0
SMALL
GASTEIGER

@<TRIPOS>ATOM
      1 C         142.1812  144.7992  156.0435 C.ar    1  UNL1        0.1725
      2 C         142.6871  144.1438  157.2943 C.ar    1  UNL1        0.0428
      3 C         141.8420  144.1398  158.5335 C.ar    1  UNL1        0.0340
      4 C         142.3480  143.4844  159.7843 C.ar    1  UNL1        0.0477
      5 C         141.5028  143.4804  161.0235 C.ar    1  UNL1        0.0365
      6 C         140.1516  144.1318  161.0119 C.ar    1  UNL1        0.1169
      7 N         139.6457  144.7872  159.7612 N.ar    1  UNL1       -0.2421
      8 C         140.4909  144.7912  158.5219 C.ar    1  UNL1        0.0858
      9 C         139.9849  145.4465  157.2712 C.ar    1  UNL1        0.0592
     10 C         140.8301  145.4505  156.0320 C.ar    1  UNL1        0.1735
     11 C         139.3064  144.1278  162.2512 C.ar    1  UNL1        0.1624
     12 C         138.0013  143.4093  162.4259 C.ar    1  UNL1        0.0418
     13 C         137.5063  143.6791  163.8160 C.ar    1  UNL1        0.0361
     14 C         138.5054  144.5642  164.5003 C.ar    1  UNL1        0.1234
     15 C         138.4089  145.0812  165.9050 C.3     1  UNL1        0.0725
     16 O         139.6180  144.8415  163.5332 O.2     1  UNL1       -0.4562
     17 C         143.8528  143.6008  154.4562 C.3     1  UNL1        0.2526
     18 O         143.0264  144.8032  154.8043 O.3     1  UNL1       -0.4684
     19 N         143.6991  142.8330  159.7959 N.pl3   1  UNL1       -0.3339
     20 H         144.3207  142.9756  159.0459 H       1  UNL1        0.1468
     21 C         144.1031  141.9644  160.9502 C.3     1  UNL1        0.0718
     22 C         143.6953  140.5213  160.9816 C.3     1  UNL1        0.0368
     23 C         144.0993  139.6527  162.1358 C.3     1  UNL1        0.0738
     24 N         144.9112  140.2273  163.2586 N.3     1  UNL1       -0.2714
     25 C         145.3152  139.3587  164.4129 C.3     1  UNL1        0.0896
     26 C         145.3190  141.6704  163.2272 C.3     1  UNL1        0.0738
     27 C         144.9150  142.5390  162.0730 C.3     1  UNL1        0.0368
     28 O         140.3241  146.1060  154.7811 O.3     1  UNL1       -0.4761
     29 C         139.9115  147.5479  154.8042 C.3     1  UNL1        0.1662
     30 C         140.2252  148.7544  153.9699 C.3     1  UNL1        0.0463
     31 C         139.3279  149.5871  154.8368 C.3     1  UNL1        0.0364
     32 C         139.0142  148.3806  155.6710 C.3     1  UNL1        0.0463
     33 C         139.6418  150.7936  154.0024 C.3     1  UNL1        0.0736
     34 N         138.7445  151.6263  154.8693 N.3     1  UNL1       -0.2714
     35 C         138.3319  153.0683  154.8923 C.3     1  UNL1        0.0896
     36 C         138.4307  150.4199  155.7035 C.3     1  UNL1        0.0736
@<TRIPOS>BOND
     1    17    18    1
     2    18     1    1
     3     1     2   ar
     4     2     3   ar
     5     3     4   ar
     6     4    19    1
     7    19    21    1
     8    21    22    1
     9    22    23    1
    10    23    24    1
    11    24    25    1
    12    24    26    1
    13    26    27    1
    14     4     5   ar
    15     5     6   ar
    16     6    11    1
    17    11    12   ar
    18    12    13   ar
    19    13    14   ar
    20    14    15    1
    21    14    16   ar
    22     6     7   ar
    23     7     8   ar
    24     8     9   ar
    25     9    10   ar
    26    10    28    1
    27    28    29    1
    28    29    30    1
    29    30    31    1
    30    31    32    1
    31    31    33    1
    32    33    34    1
    33    34    35    1
    34    34    36    1
    35    10     1   ar
    36    32    29    1
    37     8     3   ar
    38    36    31    1
    39    27    21    1
    40    16    11   ar
    41    19    20    1
@<TRIPOS>MOLECULE
*****
 36 41 0 0 0
SMALL
GASTEIGER

@<TRIPOS>ATOM
      1 C         140.1802  137.9918  163.1511 C.ar    1  UNL1        0.1725
      2 C         140.6643  138.0179  161.7317 C.ar    1  UNL1        0.0428
      3 C         139.8799  138.7523  160.6851 C.ar    1  UNL1        0.0340
      4 C         140.3641  138.7784  159.2655 C.ar    1  UNL1        0.0477
      5 C         139.5796  139.5127  158.2189 C.ar    1  UNL1        0.0365
      6 C         138.3109  140.2209  158.5919 C.ar    1  UNL1        0.1169
      7 N         137.8268  140.1948  160.0113 N.ar    1  UNL1       -0.2421
      8 C         138.6113  139.4605  161.0579 C.ar    1  UNL1        0.0858
      9 C         138.1272  139.4343  162.4774 C.ar    1  UNL1        0.0592
     10 C         138.9116  138.7000  163.5240 C.ar    1  UNL1        0.1735
     11 C         137.5265  140.9553  157.5453 C.ar    1  UNL1        0.1624
     12 C         137.7837  142.3549  157.0709 C.ar    1  UNL1        0.0418
     13 C         136.7632  142.6835  156.0217 C.ar    1  UNL1        0.0361
     14 C         135.8754  141.4871  155.8477 C.ar    1  UNL1        0.1234
     15 C         134.7189  141.3780  154.8988 C.3     1  UNL1        0.0725
     16 O         136.3471  140.4190  156.7893 O.2     1  UNL1       -0.4562
     17 C         142.0885  137.9463  164.9136 C.3     1  UNL1        0.2526
     18 O         140.9647  137.2575  164.1977 O.3     1  UNL1       -0.4684
     19 N         141.6326  138.0701  158.8927 N.pl3   1  UNL1       -0.3339
     20 H         141.7710  137.1335  159.1623 H       1  UNL1        0.1468
     21 C         142.6905  138.7891  158.1089 C.3     1  UNL1        0.0718
     22 C         143.4283  139.9404  158.7254 C.3     1  UNL1        0.0368
     23 C         144.4861  140.6593  157.9418 C.3     1  UNL1        0.0738
     24 N         144.8060  140.2269  156.5416 N.3     1  UNL1       -0.2714
     25 C         145.8639  140.9459  155.7578 C.3     1  UNL1        0.0896
     26 C         144.0682  139.0756  155.9250 C.3     1  UNL1        0.0738
     27 C         143.0104  138.3567  156.7087 C.3     1  UNL1        0.0368
     28 O         138.4275  138.6739  164.9435 O.3     1  UNL1       -0.4761
     29 C         139.0093  139.6197  165.9519 C.3     1  UNL1        0.1662
     30 C         139.7206  140.9385  165.8823 C.3     1  UNL1        0.0463
     31 C         139.8322  140.9572  167.3780 C.3     1  UNL1        0.0364
     32 C         139.1209  139.6384  167.4476 C.3     1  UNL1        0.0463
     33 C         140.5434  142.2761  167.3083 C.3     1  UNL1        0.0736
     34 N         140.6551  142.2948  168.8040 N.3     1  UNL1       -0.2714
     35 C         141.2369  143.2407  169.8125 C.3     1  UNL1        0.0896
     36 C         139.9438  140.9761  168.8737 C.3     1  UNL1        0.0736
@<TRIPOS>BOND
     1    17    18    1
     2    18     1    1
     3     1     2   ar
     4     2     3   ar
     5     3     4   ar
     6     4    19    1
     7    19    21    1
     8    21    22    1
     9    22    23    1
    10    23    24    1
    11    24    25    1
    12    24    26    1
    13    26    27    1
    14     4     5   ar
    15     5     6   ar
    16     6    11    1
    17    11    12   ar
    18    12    13   ar
    19    13    14   ar
    20    14    15    1
    21    14    16   ar
    22     6     7   ar
    23     7     8   ar
    24     8     9   ar
    25     9    10   ar
    26    10    28    1
    27    28    29    1
    28    29    30    1
    29    30    31    1
    30    31    32    1
    31    31    33    1
    32    33    34    1
    33    34    35    1
    34    34    36    1
    35    10     1   ar
    36    32    29    1
    37     8     3   ar
    38    36    31    1
    39    27    21    1
    40    16    11   ar
    41    19    20    1
@<TRIPOS>MOLECULE
*****
 36 41 0 0 0
SMALL
GASTEIGER

@<TRIPOS>ATOM
      1 C         140.3033  138.0392  162.1267 C.ar    1  UNL1        0.1725
      2 C         140.7350  138.2793  160.7104 C.ar    1  UNL1        0.0428
      3 C         139.8047  138.9550  159.7471 C.ar    1  UNL1        0.0340
      4 C         140.2364  139.1951  158.3307 C.ar    1  UNL1        0.0477
      5 C         139.3061  139.8708  157.3674 C.ar    1  UNL1        0.0365
      6 C         137.9441  140.3064  157.8204 C.ar    1  UNL1        0.1169
      7 N         137.5124  140.0663  159.2367 N.ar    1  UNL1       -0.2421
      8 C         138.4427  139.3906  160.2001 C.ar    1  UNL1        0.0858
      9 C         138.0110  139.1505  161.6164 C.ar    1  UNL1        0.0592
     10 C         138.9413  138.4748  162.5797 C.ar    1  UNL1        0.1735
     11 C         137.0138  140.9820  156.8571 C.ar    1  UNL1        0.1624
     12 C         137.1855  142.3572  156.2829 C.ar    1  UNL1        0.0418
     13 C         136.0262  142.6262  155.3698 C.ar    1  UNL1        0.0361
     14 C         135.1381  141.4175  155.3796 C.ar    1  UNL1        0.1234
     15 C         133.8635  141.2536  154.6060 C.3     1  UNL1        0.0725
     16 O         135.7485  140.4013  156.2988 O.2     1  UNL1       -0.4562
     17 C         142.3828  138.1244  163.6817 C.3     1  UNL1        0.2526
     18 O         141.2336  137.3635  163.0900 O.3     1  UNL1       -0.4684
     19 N         141.5984  138.7595  157.8777 N.pl3   1  UNL1       -0.3339
     20 H         142.3783  139.3394  158.0350 H       1  UNL1        0.1468
     21 C         141.7722  137.4403  157.1851 C.3     1  UNL1        0.0718
     22 C         140.8070  137.0219  156.1158 C.3     1  UNL1        0.0368
     23 C         140.9807  135.7028  155.4231 C.3     1  UNL1        0.0738
     24 N         142.1196  134.8022  155.7997 N.3     1  UNL1       -0.2714
     25 C         142.2934  133.4830  155.1071 C.3     1  UNL1        0.0896
     26 C         143.0847  135.2207  156.8690 C.3     1  UNL1        0.0738
     27 C         142.9110  136.5398  157.5617 C.3     1  UNL1        0.0368
     28 O         138.5096  138.2347  163.9961 O.3     1  UNL1       -0.4761
     29 C         138.9683  139.1569  165.0865 C.3     1  UNL1        0.1662
     30 C         139.6707  140.4815  165.1298 C.3     1  UNL1        0.0463
     31 C         139.6170  140.4611  166.6287 C.3     1  UNL1        0.0364
     32 C         138.9145  139.1364  166.5854 C.3     1  UNL1        0.0463
     33 C         140.3194  141.7857  166.6719 C.3     1  UNL1        0.0736
     34 N         140.2657  141.7653  168.1708 N.3     1  UNL1       -0.2714
     35 C         140.7244  142.6876  169.2612 C.3     1  UNL1        0.0896
     36 C         139.5632  140.4407  168.1275 C.3     1  UNL1        0.0736
@<TRIPOS>BOND
     1    17    18    1
     2    18     1    1
     3     1     2   ar
     4     2     3   ar
     5     3     4   ar
     6     4    19    1
     7    19    21    1
     8    21    22    1
     9    22    23    1
    10    23    24    1
    11    24    25    1
    12    24    26    1
    13    26    27    1
    14     4     5   ar
    15     5     6   ar
    16     6    11    1
    17    11    12   ar
    18    12    13   ar
    19    13    14   ar
    20    14    15    1
    21    14    16   ar
    22     6     7   ar
    23     7     8   ar
    24     8     9   ar
    25     9    10   ar
    26    10    28    1
    27    28    29    1
    28    29    30    1
    29    30    31    1
    30    31    32    1
    31    31    33    1
    32    33    34    1
    33    34    35    1
    34    34    36    1
    35    10     1   ar
    36    32    29    1
    37     8     3   ar
    38    36    31    1
    39    27    21    1
    40    16    11   ar
    41    19    20    1
@<TRIPOS>MOLECULE
*****
 36 41 0 0 0
SMALL
GASTEIGER

@<TRIPOS>ATOM
      1 C         144.1107  140.5722  162.1325 C.ar    1  UNL1        0.1725
      2 C         143.8182  140.8886  160.6957 C.ar    1  UNL1        0.0428
      3 C         143.4409  139.7893  159.7475 C.ar    1  UNL1        0.0340
      4 C         143.1484  140.1057  158.3106 C.ar    1  UNL1        0.0477
      5 C         142.7710  139.0065  157.3624 C.ar    1  UNL1        0.0365
      6 C         142.6861  137.5908  157.8509 C.ar    1  UNL1        0.1169
      7 N         142.9785  137.2744  159.2877 N.ar    1  UNL1       -0.2421
      8 C         143.3559  138.3736  160.2360 C.ar    1  UNL1        0.0858
      9 C         143.6484  138.0573  161.6727 C.ar    1  UNL1        0.0592
     10 C         144.0258  139.1565  162.6210 C.ar    1  UNL1        0.1735
     11 C         142.3087  136.4915  156.9027 C.ar    1  UNL1        0.1624
     12 C         141.3557  136.6096  155.7503 C.ar    1  UNL1        0.0418
     13 C         141.2761  135.2722  155.0757 C.ar    1  UNL1        0.0361
     14 C         142.1798  134.3275  155.8112 C.ar    1  UNL1        0.1234
     15 C         142.4056  132.8830  155.4763 C.3     1  UNL1        0.0725
     16 O         142.8180  135.0811  156.9403 O.2     1  UNL1       -0.4562
     17 C         145.9026  141.7914  163.5650 C.3     1  UNL1        0.2526
     18 O         144.4881  141.6714  163.0807 O.3     1  UNL1       -0.4684
     19 N         143.2333  141.5214  157.8221 N.pl3   1  UNL1       -0.3339
     20 H         142.5547  142.1790  158.0984 H       1  UNL1        0.1468
     21 C         144.3521  141.9351  156.9127 C.3     1  UNL1        0.0718
     22 C         144.0824  142.1883  155.4590 C.3     1  UNL1        0.0368
     23 C         145.2011  142.6020  154.5495 C.3     1  UNL1        0.0738
     24 N         146.5896  142.7626  155.0937 N.3     1  UNL1       -0.2714
     25 C         147.7085  143.1764  154.1843 C.3     1  UNL1        0.0896
     26 C         146.8594  142.5095  156.5474 C.3     1  UNL1        0.0738
     27 C         145.7407  142.0957  157.4569 C.3     1  UNL1        0.0368
     28 O         144.3183  138.8401  164.0578 O.3     1  UNL1       -0.4761
     29 C         143.3055  139.1592  165.1172 C.3     1  UNL1        0.1662
     30 C         143.2742  139.0744  166.6145 C.3     1  UNL1        0.0463
     31 C         141.8733  139.6106  166.6155 C.3     1  UNL1        0.0364
     32 C         141.9046  139.6954  165.1183 C.3     1  UNL1        0.0463
     33 C         141.8420  139.5258  168.1128 C.3     1  UNL1        0.0736
     34 N         140.4411  140.0620  168.1139 N.3     1  UNL1       -0.2714
     35 C         139.4283  140.3812  169.1734 C.3     1  UNL1        0.0896
     36 C         140.4724  140.1468  166.6167 C.3     1  UNL1        0.0736
@<TRIPOS>BOND
     1    17    18    1
     2    18     1    1
     3     1     2   ar
     4     2     3   ar
     5     3     4   ar
     6     4    19    1
     7    19    21    1
     8    21    22    1
     9    22    23    1
    10    23    24    1
    11    24    25    1
    12    24    26    1
    13    26    27    1
    14     4     5   ar
    15     5     6   ar
    16     6    11    1
    17    11    12   ar
    18    12    13   ar
    19    13    14   ar
    20    14    15    1
    21    14    16   ar
    22     6     7   ar
    23     7     8   ar
    24     8     9   ar
    25     9    10   ar
    26    10    28    1
    27    28    29    1
    28    29    30    1
    29    30    31    1
    30    31    32    1
    31    31    33    1
    32    33    34    1
    33    34    35    1
    34    34    36    1
    35    10     1   ar
    36    32    29    1
    37     8     3   ar
    38    36    31    1
    39    27    21    1
    40    16    11   ar
    41    19    20    1
@<TRIPOS>MOLECULE
*****
 36 41 0 0 0
SMALL
GASTEIGER

@<TRIPOS>ATOM
      1 C         142.0229  145.1466  155.5328 C.ar    1  UNL1        0.1725
      2 C         142.5955  144.4141  156.7099 C.ar    1  UNL1        0.0428
      3 C         141.8144  144.3199  157.9870 C.ar    1  UNL1        0.0340
      4 C         142.3871  143.5875  159.1642 C.ar    1  UNL1        0.0477
      5 C         141.6060  143.4933  160.4413 C.ar    1  UNL1        0.0365
      6 C         140.2522  144.1316  160.5412 C.ar    1  UNL1        0.1169
      7 N         139.6796  144.8640  159.3641 N.ar    1  UNL1       -0.2421
      8 C         140.4607  144.9582  158.0870 C.ar    1  UNL1        0.0858
      9 C         139.8881  145.6906  156.9099 C.ar    1  UNL1        0.0592
     10 C         140.6692  145.7848  155.6328 C.ar    1  UNL1        0.1735
     11 C         139.4710  144.0374  161.8183 C.ar    1  UNL1        0.1624
     12 C         138.2840  143.1534  162.0627 C.ar    1  UNL1        0.0418
     13 C         137.8192  143.3804  163.4707 C.ar    1  UNL1        0.0361
     14 C         138.7188  144.4046  164.0965 C.ar    1  UNL1        0.1234
     15 C         138.6156  144.9303  165.4975 C.3     1  UNL1        0.0725
     16 O         139.7397  144.8106  163.0753 O.2     1  UNL1       -0.4562
     17 C         143.9499  144.3053  154.0067 C.3     1  UNL1        0.2526
     18 O         142.8041  145.2407  154.2557 O.3     1  UNL1       -0.4684
     19 N         143.7408  142.9492  159.0642 N.pl3   1  UNL1       -0.3339
     20 H         144.4849  143.2844  159.6148 H       1  UNL1        0.1468
     21 C         143.9608  141.8002  158.1253 C.3     1  UNL1        0.0718
     22 C         142.9917  140.6555  158.1009 C.3     1  UNL1        0.0368
     23 C         143.2116  139.5065  157.1621 C.3     1  UNL1        0.0738
     24 N         144.4006  139.5022  156.2477 N.3     1  UNL1       -0.2714
     25 C         144.6206  138.3532  155.3088 C.3     1  UNL1        0.0896
     26 C         145.3697  140.6469  156.2721 C.3     1  UNL1        0.0738
     27 C         145.1498  141.7959  157.2109 C.3     1  UNL1        0.0368
     28 O         140.0966  146.5173  154.4557 O.3     1  UNL1       -0.4761
     29 C         139.7337  147.9675  154.5788 C.3     1  UNL1        0.1662
     30 C         140.0359  149.2072  153.7903 C.3     1  UNL1        0.0463
     31 C         139.2204  150.0184  154.7531 C.3     1  UNL1        0.0364
     32 C         138.9182  148.7787  155.5416 C.3     1  UNL1        0.0463
     33 C         139.5228  151.2581  153.9645 C.3     1  UNL1        0.0736
     34 N         138.7073  152.0693  154.9272 N.3     1  UNL1       -0.2714
     35 C         138.3444  153.5195  155.0504 C.3     1  UNL1        0.0896
     36 C         138.4050  150.8297  155.7157 C.3     1  UNL1        0.0736
@<TRIPOS>BOND
     1    17    18    1
     2    18     1    1
     3     1     2   ar
     4     2     3   ar
     5     3     4   ar
     6     4    19    1
     7    19    21    1
     8    21    22    1
     9    22    23    1
    10    23    24    1
    11    24    25    1
    12    24    26    1
    13    26    27    1
    14     4     5   ar
    15     5     6   ar
    16     6    11    1
    17    11    12   ar
    18    12    13   ar
    19    13    14   ar
    20    14    15    1
    21    14    16   ar
    22     6     7   ar
    23     7     8   ar
    24     8     9   ar
    25     9    10   ar
    26    10    28    1
    27    28    29    1
    28    29    30    1
    29    30    31    1
    30    31    32    1
    31    31    33    1
    32    33    34    1
    33    34    35    1
    34    34    36    1
    35    10     1   ar
    36    32    29    1
    37     8     3   ar
    38    36    31    1
    39    27    21    1
    40    16    11   ar
    41    19    20    1
@<TRIPOS>MOLECULE
*****
 36 41 0 0 0
SMALL
GASTEIGER

@<TRIPOS>ATOM
      1 C         138.1282  142.3422  156.8897 C.ar    1  UNL1        0.1725
      2 C         138.9282  142.7942  158.0753 C.ar    1  UNL1        0.0428
      3 C         138.9129  141.9897  159.3412 C.ar    1  UNL1        0.0340
      4 C         139.7129  142.4417  160.5269 C.ar    1  UNL1        0.0477
      5 C         139.6976  141.6372  161.7928 C.ar    1  UNL1        0.0365
      6 C         138.8823  140.3806  161.8730 C.ar    1  UNL1        0.1169
      7 N         138.0823  139.9287  160.6874 N.ar    1  UNL1       -0.2421
      8 C         138.0976  140.7332  159.4215 C.ar    1  UNL1        0.0858
      9 C         137.2977  140.2812  158.2359 C.ar    1  UNL1        0.0592
     10 C         137.3130  141.0857  156.9700 C.ar    1  UNL1        0.1735
     11 C         138.8670  139.5761  163.1389 C.ar    1  UNL1        0.1624
     12 C         139.4994  138.2303  163.3360 C.ar    1  UNL1        0.0418
     13 C         139.2398  137.7986  164.7489 C.ar    1  UNL1        0.0361
     14 C         138.4470  138.8776  165.4251 C.ar    1  UNL1        0.1234
     15 C         137.9686  138.8609  166.8466 C.3     1  UNL1        0.0725
     16 O         138.2166  139.9761  164.4300 O.2     1  UNL1       -0.4562
     17 C         136.9844  144.0371  155.2869 C.3     1  UNL1        0.2526
     18 O         138.1436  143.1467  155.6238 O.3     1  UNL1       -0.4684
     19 N         140.5282  143.6982  160.4466 N.pl3   1  UNL1       -0.3339
     20 H         140.4510  144.2857  159.6603 H       1  UNL1        0.1468
     21 C         141.4611  144.0597  161.5642 C.3     1  UNL1        0.0718
     22 C         140.9752  144.9076  162.7022 C.3     1  UNL1        0.0368
     23 C         141.9080  145.2691  163.8198 C.3     1  UNL1        0.0738
     24 N         143.3268  144.7827  163.7995 N.3     1  UNL1       -0.2714
     25 C         144.2597  145.1441  164.9171 C.3     1  UNL1        0.0896
     26 C         143.8127  143.9347  162.6615 C.3     1  UNL1        0.0738
     27 C         142.8799  143.5732  161.5439 C.3     1  UNL1        0.0368
     28 O         136.5129  140.6337  155.7843 O.3     1  UNL1       -0.4761
     29 C         135.0144  140.6811  155.8285 C.3     1  UNL1        0.1662
     30 C         133.9547  139.9924  156.6365 C.3     1  UNL1        0.0463
     31 C         132.8950  140.7482  155.8910 C.3     1  UNL1        0.0364
     32 C         133.9547  141.4370  155.0831 C.3     1  UNL1        0.0463
     33 C         131.8354  140.0594  156.6991 C.3     1  UNL1        0.0736
     34 N         130.7757  140.8153  155.9536 N.3     1  UNL1       -0.2714
     35 C         129.2771  140.8627  155.9979 C.3     1  UNL1        0.0896
     36 C         131.8353  141.5040  155.1457 C.3     1  UNL1        0.0736
@<TRIPOS>BOND
     1    17    18    1
     2    18     1    1
     3     1     2   ar
     4     2     3   ar
     5     3     4   ar
     6     4    19    1
     7    19    21    1
     8    21    22    1
     9    22    23    1
    10    23    24    1
    11    24    25    1
    12    24    26    1
    13    26    27    1
    14     4     5   ar
    15     5     6   ar
    16     6    11    1
    17    11    12   ar
    18    12    13   ar
    19    13    14   ar
    20    14    15    1
    21    14    16   ar
    22     6     7   ar
    23     7     8   ar
    24     8     9   ar
    25     9    10   ar
    26    10    28    1
    27    28    29    1
    28    29    30    1
    29    30    31    1
    30    31    32    1
    31    31    33    1
    32    33    34    1
    33    34    35    1
    34    34    36    1
    35    10     1   ar
    36    32    29    1
    37     8     3   ar
    38    36    31    1
    39    27    21    1
    40    16    11   ar
    41    19    20    1
@<TRIPOS>MOLECULE
*****
 36 41 0 0 0
SMALL
GASTEIGER

@<TRIPOS>ATOM
      1 C         142.2357  138.0919  158.8285 C.ar    1  UNL1        0.1725
      2 C         141.1701  138.9649  159.4219 C.ar    1  UNL1        0.0428
      3 C         140.0014  139.3953  158.5858 C.ar    1  UNL1        0.0340
      4 C         138.9357  140.2683  159.1793 C.ar    1  UNL1        0.0477
      5 C         137.7671  140.6988  158.3432 C.ar    1  UNL1        0.0365
      6 C         137.6642  140.2562  156.9136 C.ar    1  UNL1        0.1169
      7 N         138.7299  139.3832  156.3202 N.ar    1  UNL1       -0.2421
      8 C         139.8985  138.9528  157.1563 C.ar    1  UNL1        0.0858
      9 C         140.9642  138.0798  156.5629 C.ar    1  UNL1        0.0592
     10 C         142.1328  137.6494  157.3990 C.ar    1  UNL1        0.1735
     11 C         136.4956  140.6867  156.0775 C.ar    1  UNL1        0.1624
     12 C         136.5648  141.2489  154.6885 C.ar    1  UNL1        0.0418
     13 C         135.1645  141.5402  154.2362 C.ar    1  UNL1        0.0361
     14 C         134.2300  141.1579  155.3455 C.ar    1  UNL1        0.1234
     15 C         132.7354  141.2815  155.3211 C.3     1  UNL1        0.0725
     16 O         135.0527  140.6304  156.4835 O.2     1  UNL1       -0.4562
     17 C         143.6543  138.3092  160.9942 C.3     1  UNL1        0.2526
     18 O         143.4044  137.6615  159.6646 O.3     1  UNL1       -0.4684
     19 N         139.0386  140.7109  160.6088 N.pl3   1  UNL1       -0.3339
     20 H         139.0078  140.0453  161.3335 H       1  UNL1        0.1468
     21 C         139.1886  142.1675  160.9340 C.3     1  UNL1        0.0718
     22 C         140.0640  143.0396  160.0837 C.3     1  UNL1        0.0368
     23 C         140.2140  144.4962  160.4089 C.3     1  UNL1        0.0738
     24 N         139.4885  145.0807  161.5845 N.3     1  UNL1       -0.2714
     25 C         139.6385  146.5373  161.9098 C.3     1  UNL1        0.0896
     26 C         138.6131  144.2086  162.4349 C.3     1  UNL1        0.0738
     27 C         138.4631  142.7520  162.1096 C.3     1  UNL1        0.0368
     28 O         143.1986  136.7764  156.8055 O.3     1  UNL1       -0.4761
     29 C         142.9235  135.3236  156.5530 C.3     1  UNL1        0.1662
     30 C         142.1225  134.5555  155.5438 C.3     1  UNL1        0.0463
     31 C         142.5346  133.2691  156.1959 C.3     1  UNL1        0.0364
     32 C         143.3356  134.0372  157.2050 C.3     1  UNL1        0.0463
     33 C         141.7335  132.5010  155.1866 C.3     1  UNL1        0.0736
     34 N         142.1456  131.2146  155.8387 N.3     1  UNL1       -0.2714
     35 C         141.8705  129.7617  155.5861 C.3     1  UNL1        0.0896
     36 C         142.9466  131.9826  156.8478 C.3     1  UNL1        0.0736
@<TRIPOS>BOND
     1    17    18    1
     2    18     1    1
     3     1     2   ar
     4     2     3   ar
     5     3     4   ar
     6     4    19    1
     7    19    21    1
     8    21    22    1
     9    22    23    1
    10    23    24    1
    11    24    25    1
    12    24    26    1
    13    26    27    1
    14     4     5   ar
    15     5     6   ar
    16     6    11    1
    17    11    12   ar
    18    12    13   ar
    19    13    14   ar
    20    14    15    1
    21    14    16   ar
    22     6     7   ar
    23     7     8   ar
    24     8     9   ar
    25     9    10   ar
    26    10    28    1
    27    28    29    1
    28    29    30    1
    29    30    31    1
    30    31    32    1
    31    31    33    1
    32    33    34    1
    33    34    35    1
    34    34    36    1
    35    10     1   ar
    36    32    29    1
    37     8     3   ar
    38    36    31    1
    39    27    21    1
    40    16    11   ar
    41    19    20    1
