@<TRIPOS>MOLECULE
*****
 38 41 0 0 0
SMALL
GASTEIGER

@<TRIPOS>ATOM
      1 C         142.8794  138.9751  164.8255 C.ar    1  UNL1       -0.0206
      2 C         141.8040  138.1111  164.2364 C.ar    1  UNL1       -0.0042
      3 C         141.8972  137.6682  162.8063 C.ar    1  UNL1       -0.0003
      4 C         143.0657  138.0893  161.9653 C.ar    1  UNL1        0.0001
      5 C         144.1410  138.9534  162.5544 C.ar    1  UNL1       -0.0003
      6 C         144.0478  139.3962  163.9845 C.ar    1  UNL1       -0.0042
      7 C         142.9821  138.9584  170.1047 C.3     1  UNL1        0.0897
      8 N         142.8335  139.4103  168.6822 N.3     1  UNL1       -0.2708
      9 C         142.4525  140.7891  168.2303 C.3     1  UNL1        0.0816
     10 C         142.4234  140.7937  166.7306 C.3     1  UNL1        0.0981
     11 C         142.7863  139.4180  166.2556 C.3     1  UNL1        0.0483
     12 C         143.0397  138.5630  167.4617 C.3     1  UNL1        0.0770
     13 C         142.0899  141.9681  165.8589 C.2     1  UNL1        0.2274
     14 O         142.9677  143.1844  165.8711 O.2     1  UNL1       -0.2747
     15 N         140.8786  141.9262  164.9752 N.am    1  UNL1       -0.2839
     16 H         140.3025  141.1279  164.9673 H       1  UNL1        0.1549
     17 C         140.5451  143.1005  164.1036 C.ar    1  UNL1        0.0504
     18 C         139.3415  143.9425  164.4077 C.ar    1  UNL1        0.0155
     19 C         139.0081  145.1168  163.5361 C.ar    1  UNL1        0.0127
     20 C         139.8781  145.4491  162.3603 C.ar    1  UNL1        0.0578
     21 CL        139.5446  146.6235  161.4886 Cl      1  UNL1       -0.0822
     22 C         141.0817  144.6072  162.0561 C.ar    1  UNL1        0.0127
     23 C         141.4151  143.4329  162.9278 C.ar    1  UNL1        0.0155
     24 C         143.1588  137.6464  160.5352 C.2     1  UNL1        0.0047
     25 C         142.5400  138.4779  159.4508 C.2     1  UNL1        0.0580
     26 C         142.6330  138.0350  158.0207 C.2     1  UNL1        0.2497
     27 O         143.7689  138.5065  157.1620 O.2     1  UNL1       -0.2698
     28 N         141.5902  137.1207  157.4492 N.am    1  UNL1       -0.2794
     29 H         140.8446  136.8113  158.0128 H       1  UNL1        0.1552
     30 C         141.6833  136.6780  156.0192 C.ar    1  UNL1        0.0636
     31 C         140.9404  137.4264  154.9524 C.ar    1  UNL1        0.0159
     32 C         141.0336  136.9835  153.5223 C.ar    1  UNL1        0.0014
     33 C         141.8696  135.7922  153.1590 C.ar    1  UNL1        0.0013
     34 C         142.6125  135.0438  154.2258 C.ar    1  UNL1        0.0153
     35 C         142.5193  135.4867  155.6559 C.ar    1  UNL1        0.0552
     36 N         143.2621  134.7383  156.7226 N.pl3   1  UNL1       -0.3560
     37 H         143.8109  133.9564  156.4842 H       1  UNL1        0.1424
     38 H         143.2010  135.0289  157.6613 H       1  UNL1        0.1424
@<TRIPOS>BOND
     1     7     8    1
     2     8     9    1
     3     9    10    1
     4    10    13    1
     5    13    14    2
     6    13    15   am
     7    15    17    1
     8    17    18   ar
     9    18    19   ar
    10    19    20   ar
    11    20    21    1
    12    20    22   ar
    13    22    23   ar
    14    10    11    1
    15    11     1    1
    16     1     2   ar
    17     2     3   ar
    18     3     4   ar
    19     4    24    1
    20    24    25    2
    21    25    26    1
    22    26    27    2
    23    26    28   am
    24    28    30    1
    25    30    31   ar
    26    31    32   ar
    27    32    33   ar
    28    33    34   ar
    29    34    35   ar
    30    35    36    1
    31     4     5   ar
    32     5     6   ar
    33    11    12    1
    34    12     8    1
    35    23    17   ar
    36     6     1   ar
    37    35    30   ar
    38    15    16    1
    39    28    29    1
    40    36    37    1
    41    36    38    1
@<TRIPOS>MOLECULE
*****
 38 41 0 0 0
SMALL
GASTEIGER

@<TRIPOS>ATOM
      1 C         140.2001  141.6330  160.0449 C.ar    1  UNL1       -0.0206
      2 C         139.1697  140.5904  159.7267 C.ar    1  UNL1       -0.0042
      3 C         139.5672  139.3409  158.9981 C.ar    1  UNL1       -0.0003
      4 C         140.9951  139.1340  158.5877 C.ar    1  UNL1        0.0001
      5 C         142.0255  140.1766  158.9060 C.ar    1  UNL1       -0.0003
      6 C         141.6280  141.4260  159.6346 C.ar    1  UNL1       -0.0042
      7 C         139.5677  146.7184  161.3177 C.3     1  UNL1        0.0897
      8 N         139.5120  145.2200  161.3585 N.3     1  UNL1       -0.2708
      9 C         138.8701  144.3904  162.4309 C.3     1  UNL1        0.0816
     10 C         139.0498  142.9458  162.0693 C.3     1  UNL1        0.0981
     11 C         139.8027  142.8824  160.7735 C.3     1  UNL1        0.0483
     12 C         140.0883  144.2879  160.3342 C.3     1  UNL1        0.0770
     13 C         138.5621  141.7708  162.8640 C.2     1  UNL1        0.2274
     14 O         137.1334  141.3286  162.7491 O.2     1  UNL1       -0.2747
     15 N         139.5032  141.0380  163.7737 N.am    1  UNL1       -0.2839
     16 H         140.4409  141.3282  163.8491 H       1  UNL1        0.1549
     17 C         139.0155  139.8630  164.5684 C.ar    1  UNL1        0.0504
     18 C         139.2084  138.4709  164.0442 C.ar    1  UNL1        0.0155
     19 C         138.7207  137.2960  164.8389 C.ar    1  UNL1        0.0127
     20 C         138.0402  137.5131  166.1579 C.ar    1  UNL1        0.0578
     21 CL        137.5525  136.3381  166.9527 Cl      1  UNL1       -0.0822
     22 C         137.8473  138.9052  166.6822 C.ar    1  UNL1        0.0127
     23 C         138.3350  140.0801  165.8874 C.ar    1  UNL1        0.0155
     24 C         141.3925  137.8845  157.8592 C.2     1  UNL1        0.0047
     25 C         142.7602  137.7724  157.2535 C.2     1  UNL1        0.0580
     26 C         143.1577  136.5230  156.5249 C.2     1  UNL1        0.2497
     27 O         144.4102  136.5022  155.6999 O.2     1  UNL1       -0.2698
     28 N         142.3027  135.2943  156.6213 N.am    1  UNL1       -0.2794
     29 H         141.4806  135.3078  157.1628 H       1  UNL1        0.1552
     30 C         142.7002  134.0449  155.8927 C.ar    1  UNL1        0.0636
     31 C         142.3253  133.8656  154.4514 C.ar    1  UNL1        0.0159
     32 C         142.7229  132.6161  153.7229 C.ar    1  UNL1        0.0014
     33 C         143.4955  131.5460  154.4356 C.ar    1  UNL1        0.0013
     34 C         143.8704  131.7253  155.8769 C.ar    1  UNL1        0.0153
     35 C         143.4728  132.9747  156.6054 C.ar    1  UNL1        0.0552
     36 N         143.8477  133.1540  158.0467 N.pl3   1  UNL1       -0.3560
     37 H         144.3548  132.4517  158.5144 H       1  UNL1        0.1424
     38 H         143.5868  133.9741  158.5248 H       1  UNL1        0.1424
@<TRIPOS>BOND
     1     7     8    1
     2     8     9    1
     3     9    10    1
     4    10    13    1
     5    13    14    2
     6    13    15   am
     7    15    17    1
     8    17    18   ar
     9    18    19   ar
    10    19    20   ar
    11    20    21    1
    12    20    22   ar
    13    22    23   ar
    14    10    11    1
    15    11     1    1
    16     1     2   ar
    17     2     3   ar
    18     3     4   ar
    19     4    24    1
    20    24    25    2
    21    25    26    1
    22    26    27    2
    23    26    28   am
    24    28    30    1
    25    30    31   ar
    26    31    32   ar
    27    32    33   ar
    28    33    34   ar
    29    34    35   ar
    30    35    36    1
    31     4     5   ar
    32     5     6   ar
    33    11    12    1
    34    12     8    1
    35    23    17   ar
    36     6     1   ar
    37    35    30   ar
    38    15    16    1
    39    28    29    1
    40    36    37    1
    41    36    38    1
@<TRIPOS>MOLECULE
*****
 38 41 0 0 0
SMALL
GASTEIGER

@<TRIPOS>ATOM
      1 C         140.4760  143.2786  164.7140 C.ar    1  UNL1       -0.0206
      2 C         141.6910  144.0494  164.2901 C.ar    1  UNL1       -0.0042
      3 C         141.6911  144.7920  162.9868 C.ar    1  UNL1       -0.0003
      4 C         140.4762  144.7640  162.1074 C.ar    1  UNL1        0.0001
      5 C         139.2612  143.9932  162.5313 C.ar    1  UNL1       -0.0003
      6 C         139.2611  143.2506  163.8346 C.ar    1  UNL1       -0.0042
      7 C         140.0735  142.1659  169.8599 C.3     1  UNL1        0.0897
      8 N         140.2908  142.0244  168.3825 N.3     1  UNL1       -0.2708
      9 C         140.6603  140.7613  167.6626 C.3     1  UNL1        0.0816
     10 C         140.7747  141.0775  166.2008 C.3     1  UNL1        0.0981
     11 C         140.4758  142.5359  166.0172 C.3     1  UNL1        0.0483
     12 C         140.1768  143.1212  167.3655 C.3     1  UNL1        0.0770
     13 C         141.1262  140.1058  165.1135 C.2     1  UNL1        0.2274
     14 O         140.8626  138.6412  165.3025 O.2     1  UNL1       -0.2747
     15 N         141.7412  140.5985  163.8372 N.am    1  UNL1       -0.2839
     16 H         141.9142  141.5597  163.7132 H       1  UNL1        0.1549
     17 C         142.0927  139.6268  162.7499 C.ar    1  UNL1        0.0504
     18 C         141.0991  139.3189  161.6691 C.ar    1  UNL1        0.0155
     19 C         141.4506  138.3472  160.5819 C.ar    1  UNL1        0.0127
     20 C         142.7957  137.6833  160.5754 C.ar    1  UNL1        0.0578
     21 CL        143.1472  136.7116  159.4881 Cl      1  UNL1       -0.0822
     22 C         143.7893  137.9912  161.6561 C.ar    1  UNL1        0.0127
     23 C         143.4378  138.9629  162.7434 C.ar    1  UNL1        0.0155
     24 C         140.4764  145.5067  160.8042 C.2     1  UNL1        0.0047
     25 C         141.2681  144.9830  159.6428 C.2     1  UNL1        0.0580
     26 C         141.2683  145.7256  158.3395 C.2     1  UNL1        0.2497
     27 O         142.5424  146.3173  157.8137 O.2     1  UNL1       -0.2698
     28 N         139.9944  145.8767  157.5620 N.am    1  UNL1       -0.2794
     29 H         139.1581  145.4883  157.9070 H       1  UNL1        0.1552
     30 C         139.9947  146.6193  156.2588 C.ar    1  UNL1        0.0636
     31 C         140.7199  146.0541  155.0736 C.ar    1  UNL1        0.0159
     32 C         140.7202  146.7968  153.7704 C.ar    1  UNL1        0.0014
     33 C         139.9953  148.1047  153.6524 C.ar    1  UNL1        0.0013
     34 C         139.2701  148.6699  154.8375 C.ar    1  UNL1        0.0153
     35 C         139.2698  147.9272  156.1407 C.ar    1  UNL1        0.0552
     36 N         138.5447  148.4924  157.3259 N.pl3   1  UNL1       -0.3560
     37 H         138.0689  149.3508  157.2484 H       1  UNL1        0.1424
     38 H         138.5445  148.0049  158.1813 H       1  UNL1        0.1424
@<TRIPOS>BOND
     1     7     8    1
     2     8     9    1
     3     9    10    1
     4    10    13    1
     5    13    14    2
     6    13    15   am
     7    15    17    1
     8    17    18   ar
     9    18    19   ar
    10    19    20   ar
    11    20    21    1
    12    20    22   ar
    13    22    23   ar
    14    10    11    1
    15    11     1    1
    16     1     2   ar
    17     2     3   ar
    18     3     4   ar
    19     4    24    1
    20    24    25    2
    21    25    26    1
    22    26    27    2
    23    26    28   am
    24    28    30    1
    25    30    31   ar
    26    31    32   ar
    27    32    33   ar
    28    33    34   ar
    29    34    35   ar
    30    35    36    1
    31     4     5   ar
    32     5     6   ar
    33    11    12    1
    34    12     8    1
    35    23    17   ar
    36     6     1   ar
    37    35    30   ar
    38    15    16    1
    39    28    29    1
    40    36    37    1
    41    36    38    1
@<TRIPOS>MOLECULE
*****
 38 41 0 0 0
SMALL
GASTEIGER

@<TRIPOS>ATOM
      1 C         141.3939  143.4484  156.2207 C.ar    1  UNL1       -0.0206
      2 C         142.8868  143.3403  156.1241 C.ar    1  UNL1       -0.0042
      3 C         143.5361  141.9919  156.0222 C.ar    1  UNL1       -0.0003
      4 C         142.6924  140.7516  156.0168 C.ar    1  UNL1        0.0001
      5 C         141.1994  140.8598  156.1134 C.ar    1  UNL1       -0.0003
      6 C         140.5502  142.2081  156.2153 C.ar    1  UNL1       -0.0042
      7 C         139.3337  148.1396  154.9441 C.3     1  UNL1        0.0897
      8 N         139.7976  146.9530  155.7359 N.3     1  UNL1       -0.2708
      9 C         139.6930  146.7901  157.2234 C.3     1  UNL1        0.0816
     10 C         140.2783  145.4575  157.5860 C.3     1  UNL1        0.0981
     11 C         140.7445  144.7967  156.3226 C.3     1  UNL1        0.0483
     12 C         140.4474  145.7210  155.1792 C.3     1  UNL1        0.0770
     13 C         140.3796  144.8859  158.9692 C.2     1  UNL1        0.2274
     14 O         139.3709  143.8810  159.4411 O.2     1  UNL1       -0.2747
     15 N         141.4894  145.3193  159.8804 N.am    1  UNL1       -0.2839
     16 H         142.1514  145.9789  159.5706 H       1  UNL1        0.1549
     17 C         141.5907  144.7478  161.2636 C.ar    1  UNL1        0.0504
     18 C         142.4310  143.5305  161.5124 C.ar    1  UNL1        0.0155
     19 C         142.5322  142.9590  162.8956 C.ar    1  UNL1        0.0127
     20 C         141.7931  143.6048  164.0298 C.ar    1  UNL1        0.0578
     21 CL        141.8943  143.0333  165.4130 Cl      1  UNL1       -0.0822
     22 C         140.9527  144.8221  163.7810 C.ar    1  UNL1        0.0127
     23 C         140.8515  145.3936  162.3978 C.ar    1  UNL1        0.0155
     24 C         143.3417  139.4033  155.9149 C.2     1  UNL1        0.0047
     25 C         142.5850  138.1739  156.3220 C.2     1  UNL1        0.0580
     26 C         143.2343  136.8255  156.2201 C.2     1  UNL1        0.2497
     27 O         144.6570  136.7111  155.7590 O.2     1  UNL1       -0.2698
     28 N         142.4608  135.5915  156.5792 N.am    1  UNL1       -0.2794
     29 H         141.5270  135.6665  156.8819 H       1  UNL1        0.1552
     30 C         143.1101  134.2432  156.4773 C.ar    1  UNL1        0.0636
     31 C         143.1016  133.5033  155.1725 C.ar    1  UNL1        0.0159
     32 C         143.7510  132.1550  155.0706 C.ar    1  UNL1        0.0014
     33 C         144.4088  131.5466  156.2736 C.ar    1  UNL1        0.0013
     34 C         144.4173  132.2864  157.5784 C.ar    1  UNL1        0.0153
     35 C         143.7679  133.6347  157.6802 C.ar    1  UNL1        0.0552
     36 N         143.7764  134.3746  158.9850 N.pl3   1  UNL1       -0.3560
     37 H         144.2081  133.9752  159.7746 H       1  UNL1        0.1424
     38 H         143.3502  135.2595  159.0519 H       1  UNL1        0.1424
@<TRIPOS>BOND
     1     7     8    1
     2     8     9    1
     3     9    10    1
     4    10    13    1
     5    13    14    2
     6    13    15   am
     7    15    17    1
     8    17    18   ar
     9    18    19   ar
    10    19    20   ar
    11    20    21    1
    12    20    22   ar
    13    22    23   ar
    14    10    11    1
    15    11     1    1
    16     1     2   ar
    17     2     3   ar
    18     3     4   ar
    19     4    24    1
    20    24    25    2
    21    25    26    1
    22    26    27    2
    23    26    28   am
    24    28    30    1
    25    30    31   ar
    26    31    32   ar
    27    32    33   ar
    28    33    34   ar
    29    34    35   ar
    30    35    36    1
    31     4     5   ar
    32     5     6   ar
    33    11    12    1
    34    12     8    1
    35    23    17   ar
    36     6     1   ar
    37    35    30   ar
    38    15    16    1
    39    28    29    1
    40    36    37    1
    41    36    38    1
@<TRIPOS>MOLECULE
*****
 38 41 0 0 0
SMALL
GASTEIGER

@<TRIPOS>ATOM
      1 C         141.3425  143.2506  156.6944 C.ar    1  UNL1       -0.0206
      2 C         140.5170  142.0003  156.6229 C.ar    1  UNL1       -0.0042
      3 C         141.1883  140.6593  156.5877 C.ar    1  UNL1       -0.0003
      4 C         142.6852  140.5687  156.6239 C.ar    1  UNL1        0.0001
      5 C         143.5107  141.8190  156.6954 C.ar    1  UNL1       -0.0003
      6 C         142.8394  143.1599  156.7306 C.ar    1  UNL1       -0.0042
      7 C         139.0070  147.7387  155.1832 C.3     1  UNL1        0.0897
      8 N         139.5978  146.6545  156.0350 N.3     1  UNL1       -0.2708
      9 C         139.6790  146.6557  157.5329 C.3     1  UNL1        0.0816
     10 C         140.3425  145.3808  157.9621 C.3     1  UNL1        0.0981
     11 C         140.6713  144.5916  156.7296 C.3     1  UNL1        0.0483
     12 C         140.2111  145.3787  155.5386 C.3     1  UNL1        0.0770
     13 C         140.6272  144.9676  159.3757 C.2     1  UNL1        0.2274
     14 O         142.0429  144.9005  159.8669 O.2     1  UNL1       -0.2747
     15 N         139.4962  144.6214  160.2982 N.am    1  UNL1       -0.2839
     16 H         138.5670  144.6654  159.9758 H       1  UNL1        0.1549
     17 C         139.7808  144.2082  161.7118 C.ar    1  UNL1        0.0504
     18 C         139.6299  145.1991  162.8277 C.ar    1  UNL1        0.0155
     19 C         139.9146  144.7859  164.2412 C.ar    1  UNL1        0.0127
     20 C         140.3502  143.3818  164.5389 C.ar    1  UNL1        0.0578
     21 CL        140.6348  142.9686  165.9525 Cl      1  UNL1       -0.0822
     22 C         140.5011  142.3908  163.4230 C.ar    1  UNL1        0.0127
     23 C         140.2164  142.8040  162.0095 C.ar    1  UNL1        0.0155
     24 C         143.3564  139.2277  156.5887 C.2     1  UNL1        0.0047
     25 C         142.5897  138.0167  156.1463 C.2     1  UNL1        0.0580
     26 C         143.2608  136.6757  156.1111 C.2     1  UNL1        0.2497
     27 O         144.6940  136.5654  155.6824 O.2     1  UNL1       -0.2698
     28 N         142.4988  135.4450  156.5044 N.am    1  UNL1       -0.2794
     29 H         141.5581  135.5173  156.7857 H       1  UNL1        0.1552
     30 C         143.1700  134.1040  156.4691 C.ar    1  UNL1        0.0636
     31 C         143.1847  133.3058  155.1992 C.ar    1  UNL1        0.0159
     32 C         143.8560  131.9649  155.1640 C.ar    1  UNL1        0.0014
     33 C         144.5125  131.4221  156.3987 C.ar    1  UNL1        0.0013
     34 C         144.4978  132.2203  157.6686 C.ar    1  UNL1        0.0153
     35 C         143.8265  133.5613  157.7038 C.ar    1  UNL1        0.0552
     36 N         143.8118  134.3595  158.9737 N.pl3   1  UNL1       -0.3560
     37 H         144.2427  134.0033  159.7840 H       1  UNL1        0.1424
     38 H         143.3712  135.2396  158.9968 H       1  UNL1        0.1424
@<TRIPOS>BOND
     1     7     8    1
     2     8     9    1
     3     9    10    1
     4    10    13    1
     5    13    14    2
     6    13    15   am
     7    15    17    1
     8    17    18   ar
     9    18    19   ar
    10    19    20   ar
    11    20    21    1
    12    20    22   ar
    13    22    23   ar
    14    10    11    1
    15    11     1    1
    16     1     2   ar
    17     2     3   ar
    18     3     4   ar
    19     4    24    1
    20    24    25    2
    21    25    26    1
    22    26    27    2
    23    26    28   am
    24    28    30    1
    25    30    31   ar
    26    31    32   ar
    27    32    33   ar
    28    33    34   ar
    29    34    35   ar
    30    35    36    1
    31     4     5   ar
    32     5     6   ar
    33    11    12    1
    34    12     8    1
    35    23    17   ar
    36     6     1   ar
    37    35    30   ar
    38    15    16    1
    39    28    29    1
    40    36    37    1
    41    36    38    1
@<TRIPOS>MOLECULE
*****
 38 41 0 0 0
SMALL
GASTEIGER

@<TRIPOS>ATOM
      1 C         142.5277  139.1608  165.4507 C.ar    1  UNL1       -0.0206
      2 C         143.7191  139.4373  164.5824 C.ar    1  UNL1       -0.0042
      3 C         143.7521  138.9309  163.1709 C.ar    1  UNL1       -0.0003
      4 C         142.5936  138.1480  162.6276 C.ar    1  UNL1        0.0001
      5 C         141.4022  137.8715  163.4959 C.ar    1  UNL1       -0.0003
      6 C         141.3692  138.3779  164.9074 C.ar    1  UNL1       -0.0042
      7 C         143.1146  139.4731  170.6889 C.3     1  UNL1        0.0897
      8 N         142.7644  139.8108  169.2700 N.3     1  UNL1       -0.2708
      9 C         142.1229  141.0822  168.7988 C.3     1  UNL1        0.0816
     10 C         141.9562  140.9934  167.3107 C.3     1  UNL1        0.0981
     11 C         142.4946  139.6672  166.8623 C.3     1  UNL1        0.0483
     12 C         142.9941  138.9362  168.0731 C.3     1  UNL1        0.0770
     13 C         141.3564  142.0462  166.4264 C.2     1  UNL1        0.2274
     14 O         140.2050  142.8721  166.9185 O.2     1  UNL1       -0.2747
     15 N         141.9079  142.2730  165.0501 N.am    1  UNL1       -0.2839
     16 H         142.6636  141.7309  164.7271 H       1  UNL1        0.1549
     17 C         141.3081  143.3258  164.1658 C.ar    1  UNL1        0.0504
     18 C         142.0087  144.6393  163.9821 C.ar    1  UNL1        0.0155
     19 C         141.4088  145.6920  163.0978 C.ar    1  UNL1        0.0127
     20 C         140.1084  145.4311  162.3972 C.ar    1  UNL1        0.0578
     21 CL        139.5086  146.4839  161.5129 Cl      1  UNL1       -0.0822
     22 C         139.4079  144.1176  162.5808 C.ar    1  UNL1        0.0127
     23 C         140.0077  143.0649  163.4651 C.ar    1  UNL1        0.0155
     24 C         142.6267  137.6416  161.2160 C.2     1  UNL1        0.0047
     25 C         142.2506  138.5511  160.0841 C.2     1  UNL1        0.0580
     26 C         142.2836  138.0448  158.6725 C.2     1  UNL1        0.2497
     27 O         143.0878  136.8253  158.3317 O.2     1  UNL1       -0.2698
     28 N         141.5126  138.7580  157.6016 N.am    1  UNL1       -0.2794
     29 H         140.9847  139.5584  157.8251 H       1  UNL1        0.1552
     30 C         141.5456  138.2517  156.1900 C.ar    1  UNL1        0.0636
     31 C         142.6779  138.6326  155.2829 C.ar    1  UNL1        0.0159
     32 C         142.7109  138.1262  153.8713 C.ar    1  UNL1        0.0014
     33 C         141.6117  137.2389  153.3670 C.ar    1  UNL1        0.0013
     34 C         140.4795  136.8580  154.2741 C.ar    1  UNL1        0.0153
     35 C         140.4464  137.3644  155.6856 C.ar    1  UNL1        0.0552
     36 N         139.3142  136.9834  156.5928 N.pl3   1  UNL1       -0.3560
     37 H         138.5928  136.4010  156.2618 H       1  UNL1        0.1424
     38 H         139.2925  137.3158  157.5192 H       1  UNL1        0.1424
@<TRIPOS>BOND
     1     7     8    1
     2     8     9    1
     3     9    10    1
     4    10    13    1
     5    13    14    2
     6    13    15   am
     7    15    17    1
     8    17    18   ar
     9    18    19   ar
    10    19    20   ar
    11    20    21    1
    12    20    22   ar
    13    22    23   ar
    14    10    11    1
    15    11     1    1
    16     1     2   ar
    17     2     3   ar
    18     3     4   ar
    19     4    24    1
    20    24    25    2
    21    25    26    1
    22    26    27    2
    23    26    28   am
    24    28    30    1
    25    30    31   ar
    26    31    32   ar
    27    32    33   ar
    28    33    34   ar
    29    34    35   ar
    30    35    36    1
    31     4     5   ar
    32     5     6   ar
    33    11    12    1
    34    12     8    1
    35    23    17   ar
    36     6     1   ar
    37    35    30   ar
    38    15    16    1
    39    28    29    1
    40    36    37    1
    41    36    38    1
@<TRIPOS>MOLECULE
*****
 38 41 0 0 0
SMALL
GASTEIGER

@<TRIPOS>ATOM
      1 C         141.5219  142.7624  156.9558 C.ar    1  UNL1       -0.0206
      2 C         140.6519  141.5614  156.7305 C.ar    1  UNL1       -0.0042
      3 C         141.2752  140.2209  156.4765 C.ar    1  UNL1       -0.0003
      4 C         142.7684  140.0813  156.4478 C.ar    1  UNL1        0.0001
      5 C         143.6384  141.2823  156.6731 C.ar    1  UNL1       -0.0003
      6 C         143.0151  142.6228  156.9271 C.ar    1  UNL1       -0.0042
      7 C         139.1646  147.4276  156.2072 C.3     1  UNL1        0.0897
      8 N         139.8151  146.2473  156.8657 N.3     1  UNL1       -0.2708
      9 C         140.0642  146.0844  158.3360 C.3     1  UNL1        0.0816
     10 C         140.7339  144.7591  158.5486 C.3     1  UNL1        0.0981
     11 C         140.8987  144.1029  157.2098 C.3     1  UNL1        0.0483
     12 C         140.3309  145.0226  156.1698 C.3     1  UNL1        0.0770
     13 C         141.1634  144.1900  159.8683 C.2     1  UNL1        0.2274
     14 O         140.7468  142.8027  160.2580 O.2     1  UNL1       -0.2747
     15 N         142.0094  145.0081  160.7983 N.am    1  UNL1       -0.2839
     16 H         142.2828  145.9187  160.5425 H       1  UNL1        0.1549
     17 C         142.4388  144.4390  162.1181 C.ar    1  UNL1        0.0504
     18 C         141.4722  144.3901  163.2640 C.ar    1  UNL1        0.0155
     19 C         141.9017  143.8210  164.5837 C.ar    1  UNL1        0.0127
     20 C         143.2978  143.3007  164.7574 C.ar    1  UNL1        0.0578
     21 CL        143.7273  142.7316  166.0772 Cl      1  UNL1       -0.0822
     22 C         144.2644  143.3496  163.6115 C.ar    1  UNL1        0.0127
     23 C         143.8349  143.9187  162.2918 C.ar    1  UNL1        0.0155
     24 C         143.3916  138.7408  156.1937 C.2     1  UNL1        0.0047
     25 C         142.5356  137.5093  156.1642 C.2     1  UNL1        0.0580
     26 C         143.1587  136.1687  155.9102 C.2     1  UNL1        0.2497
     27 O         144.5389  136.0812  155.3293 O.2     1  UNL1       -0.2698
     28 N         142.4017  134.9157  156.2370 N.am    1  UNL1       -0.2794
     29 H         141.4958  134.9731  156.6182 H       1  UNL1        0.1552
     30 C         143.0249  133.5751  155.9829 C.ar    1  UNL1        0.0636
     31 C         142.8353  132.8989  154.6575 C.ar    1  UNL1        0.0159
     32 C         143.4585  131.5584  154.4035 C.ar    1  UNL1        0.0014
     33 C         144.2713  130.8940  155.4750 C.ar    1  UNL1        0.0013
     34 C         144.4609  131.5702  156.8004 C.ar    1  UNL1        0.0153
     35 C         143.8377  132.9108  157.0544 C.ar    1  UNL1        0.0552
     36 N         144.0272  133.5870  158.3798 N.pl3   1  UNL1       -0.3560
     37 H         144.5607  133.1510  159.0831 H       1  UNL1        0.1424
     38 H         143.6182  134.4669  158.5465 H       1  UNL1        0.1424
@<TRIPOS>BOND
     1     7     8    1
     2     8     9    1
     3     9    10    1
     4    10    13    1
     5    13    14    2
     6    13    15   am
     7    15    17    1
     8    17    18   ar
     9    18    19   ar
    10    19    20   ar
    11    20    21    1
    12    20    22   ar
    13    22    23   ar
    14    10    11    1
    15    11     1    1
    16     1     2   ar
    17     2     3   ar
    18     3     4   ar
    19     4    24    1
    20    24    25    2
    21    25    26    1
    22    26    27    2
    23    26    28   am
    24    28    30    1
    25    30    31   ar
    26    31    32   ar
    27    32    33   ar
    28    33    34   ar
    29    34    35   ar
    30    35    36    1
    31     4     5   ar
    32     5     6   ar
    33    11    12    1
    34    12     8    1
    35    23    17   ar
    36     6     1   ar
    37    35    30   ar
    38    15    16    1
    39    28    29    1
    40    36    37    1
    41    36    38    1
@<TRIPOS>MOLECULE
*****
 38 41 0 0 0
SMALL
GASTEIGER

@<TRIPOS>ATOM
      1 C         141.3997  142.1981  159.5996 C.ar    1  UNL1       -0.0206
      2 C         140.6286  141.7317  158.4006 C.ar    1  UNL1       -0.0042
      3 C         141.1303  140.5735  157.5901 C.ar    1  UNL1       -0.0003
      4 C         142.4033  139.8816  157.9787 C.ar    1  UNL1        0.0001
      5 C         143.1744  140.3480  159.1778 C.ar    1  UNL1       -0.0003
      6 C         142.6727  141.5062  159.9882 C.ar    1  UNL1       -0.0042
      7 C         139.5265  145.0913  163.5998 C.3     1  UNL1        0.0897
      8 N         140.0370  144.6861  162.2488 N.3     1  UNL1       -0.2708
      9 C         140.2150  145.5910  161.0657 C.3     1  UNL1        0.0816
     10 C         140.7471  144.7691  159.9294 C.3     1  UNL1        0.0981
     11 C         140.8980  143.3562  160.4101 C.3     1  UNL1        0.0483
     12 C         140.4591  143.3049  161.8435 C.3     1  UNL1        0.0770
     13 C         141.0714  145.2718  158.5538 C.2     1  UNL1        0.2274
     14 O         142.4299  145.8376  158.2630 O.2     1  UNL1       -0.2747
     15 N         140.0374  145.2087  157.4691 N.am    1  UNL1       -0.2839
     16 H         139.1458  144.8374  157.6600 H       1  UNL1        0.1549
     17 C         140.3617  145.7115  156.0935 C.ar    1  UNL1        0.0504
     18 C         139.8334  147.0387  155.6362 C.ar    1  UNL1        0.0155
     19 C         140.1577  147.5414  154.2607 C.ar    1  UNL1        0.0127
     20 C         141.0103  146.7168  153.3425 C.ar    1  UNL1        0.0578
     21 CL        141.3346  147.2195  151.9669 Cl      1  UNL1       -0.0822
     22 C         141.5386  145.3895  153.7998 C.ar    1  UNL1        0.0127
     23 C         141.2143  144.8869  155.1754 C.ar    1  UNL1        0.0155
     24 C         142.9050  138.7235  157.1682 C.2     1  UNL1        0.0047
     25 C         142.6342  137.3189  157.6198 C.2     1  UNL1        0.0580
     26 C         143.1358  136.1607  156.8094 C.2     1  UNL1        0.2497
     27 O         144.2835  136.3493  155.8621 O.2     1  UNL1       -0.2698
     28 N         142.4899  134.8138  156.9462 N.am    1  UNL1       -0.2794
     29 H         141.7367  134.6899  157.5679 H       1  UNL1        0.1552
     30 C         142.9916  133.6556  156.1357 C.ar    1  UNL1        0.0636
     31 C         142.4521  133.4153  154.7569 C.ar    1  UNL1        0.0159
     32 C         142.9539  132.2571  153.9465 C.ar    1  UNL1        0.0014
     33 C         143.9952  131.3392  154.5150 C.ar    1  UNL1        0.0013
     34 C         144.5348  131.5795  155.8938 C.ar    1  UNL1        0.0153
     35 C         144.0330  132.7377  156.7041 C.ar    1  UNL1        0.0552
     36 N         144.5725  132.9780  158.0830 N.pl3   1  UNL1       -0.3560
     37 H         145.2560  132.3756  158.4560 H       1  UNL1        0.1424
     38 H         144.2432  133.7382  158.6149 H       1  UNL1        0.1424
@<TRIPOS>BOND
     1     7     8    1
     2     8     9    1
     3     9    10    1
     4    10    13    1
     5    13    14    2
     6    13    15   am
     7    15    17    1
     8    17    18   ar
     9    18    19   ar
    10    19    20   ar
    11    20    21    1
    12    20    22   ar
    13    22    23   ar
    14    10    11    1
    15    11     1    1
    16     1     2   ar
    17     2     3   ar
    18     3     4   ar
    19     4    24    1
    20    24    25    2
    21    25    26    1
    22    26    27    2
    23    26    28   am
    24    28    30    1
    25    30    31   ar
    26    31    32   ar
    27    32    33   ar
    28    33    34   ar
    29    34    35   ar
    30    35    36    1
    31     4     5   ar
    32     5     6   ar
    33    11    12    1
    34    12     8    1
    35    23    17   ar
    36     6     1   ar
    37    35    30   ar
    38    15    16    1
    39    28    29    1
    40    36    37    1
    41    36    38    1
@<TRIPOS>MOLECULE
*****
 38 41 0 0 0
SMALL
GASTEIGER

@<TRIPOS>ATOM
      1 C         138.3235  141.5776  156.9218 C.ar    1  UNL1       -0.0206
      2 C         138.5281  140.1620  157.3735 C.ar    1  UNL1       -0.0042
      3 C         138.8456  139.8717  158.8105 C.ar    1  UNL1       -0.0003
      4 C         138.9586  140.9970  159.7959 C.ar    1  UNL1        0.0001
      5 C         138.7540  142.4127  159.3442 C.ar    1  UNL1       -0.0003
      6 C         138.4365  142.7030  157.9072 C.ar    1  UNL1       -0.0042
      7 C         138.6600  143.3764  151.9688 C.3     1  UNL1        0.0897
      8 N         138.1607  142.6948  153.2082 N.3     1  UNL1       -0.2708
      9 C         136.8740  141.9348  153.3390 C.3     1  UNL1        0.0816
     10 C         136.7785  141.4239  154.7461 C.3     1  UNL1        0.0981
     11 C         138.0060  141.8680  155.4849 C.3     1  UNL1        0.0483
     12 C         138.8603  142.6535  154.5345 C.3     1  UNL1        0.0770
     13 C         135.6529  140.6114  155.3145 C.2     1  UNL1        0.2274
     14 O         135.7214  139.1132  155.2877 O.2     1  UNL1       -0.2747
     15 N         134.4590  141.2971  155.9097 N.am    1  UNL1       -0.2839
     16 H         134.4141  142.2804  155.9273 H       1  UNL1        0.1549
     17 C         133.3334  140.4846  156.4781 C.ar    1  UNL1        0.0504
     18 C         133.6092  139.4588  157.5372 C.ar    1  UNL1        0.0155
     19 C         132.4837  138.6464  158.1055 C.ar    1  UNL1        0.0127
     20 C         131.0824  138.8597  157.6148 C.ar    1  UNL1        0.0578
     21 CL        129.9568  138.0472  158.1833 Cl      1  UNL1       -0.0822
     22 C         130.8066  139.8855  156.5558 C.ar    1  UNL1        0.0127
     23 C         131.9321  140.6980  155.9874 C.ar    1  UNL1        0.0155
     24 C         139.2761  140.7067  161.2328 C.2     1  UNL1        0.0047
     25 C         139.9417  141.7507  162.0795 C.2     1  UNL1        0.0580
     26 C         140.2593  141.4604  163.5165 C.2     1  UNL1        0.2497
     27 O         141.5249  140.7390  163.8739 O.2     1  UNL1       -0.2698
     28 N         139.3112  141.8914  164.5961 N.am    1  UNL1       -0.2794
     29 H         138.4805  142.3649  164.3615 H       1  UNL1        0.1552
     30 C         139.6288  141.6011  166.0330 C.ar    1  UNL1        0.0636
     31 C         140.3805  142.6073  166.8531 C.ar    1  UNL1        0.0159
     32 C         140.6980  142.3169  168.2900 C.ar    1  UNL1        0.0014
     33 C         140.2640  141.0202  168.9068 C.ar    1  UNL1        0.0013
     34 C         139.5124  140.0140  168.0867 C.ar    1  UNL1        0.0153
     35 C         139.1948  140.3045  166.6498 C.ar    1  UNL1        0.0552
     36 N         138.4432  139.2983  165.8296 N.pl3   1  UNL1       -0.3560
     37 H         138.1584  138.4473  166.2344 H       1  UNL1        0.1424
     38 H         138.2348  139.4889  164.8865 H       1  UNL1        0.1424
@<TRIPOS>BOND
     1     7     8    1
     2     8     9    1
     3     9    10    1
     4    10    13    1
     5    13    14    2
     6    13    15   am
     7    15    17    1
     8    17    18   ar
     9    18    19   ar
    10    19    20   ar
    11    20    21    1
    12    20    22   ar
    13    22    23   ar
    14    10    11    1
    15    11     1    1
    16     1     2   ar
    17     2     3   ar
    18     3     4   ar
    19     4    24    1
    20    24    25    2
    21    25    26    1
    22    26    27    2
    23    26    28   am
    24    28    30    1
    25    30    31   ar
    26    31    32   ar
    27    32    33   ar
    28    33    34   ar
    29    34    35   ar
    30    35    36    1
    31     4     5   ar
    32     5     6   ar
    33    11    12    1
    34    12     8    1
    35    23    17   ar
    36     6     1   ar
    37    35    30   ar
    38    15    16    1
    39    28    29    1
    40    36    37    1
    41    36    38    1
