@<TRIPOS>MOLECULE
*****
 39 42 0 0 0
SMALL
GASTEIGER

@<TRIPOS>ATOM
      1 N         142.7296  138.4760  163.2010 N.3     1  UNL1       -0.2711
      2 C         141.8068  137.8250  162.2137 C.3     1  UNL1        0.0933
      3 C         142.8846  137.8774  161.1718 C.3     1  UNL1        0.1035
      4 C         143.8073  138.5285  162.1590 C.3     1  UNL1        0.0933
      5 C         142.4006  139.7455  167.5056 C.3     1  UNL1        0.1070
      6 O         142.9371  139.3760  168.8568 O.3     1  UNL1       -0.3827
      7 C         141.6194  140.4685  166.4487 C.3     1  UNL1        0.0325
      8 C         141.7291  140.0453  165.0138 C.3     1  UNL1        0.0187
      9 C         142.6199  138.8992  164.6358 C.3     1  UNL1        0.0578
     10 C         143.4010  138.1762  165.6928 C.3     1  UNL1        0.0187
     11 C         143.2914  138.5994  167.1277 C.3     1  UNL1        0.0325
     12 H         142.5589  139.9662  169.5273 H       1  UNL1        0.2107
     13 C         140.2872  142.7989  170.0473 C.ar    1  UNL1        0.1387
     14 C         139.6131  141.4995  169.7200 C.ar    1  UNL1        0.0367
     15 C         140.3176  140.4817  168.8728 C.ar    1  UNL1        0.0011
     16 C         141.6961  140.7633  168.3529 C.ar    1  UNL1        0.0019
     17 C         142.3701  142.0627  168.6801 C.ar    1  UNL1        0.0011
     18 C         141.6657  143.0805  169.5273 C.ar    1  UNL1        0.0367
     19 C         139.6825  145.2742  170.5544 C.3     1  UNL1        0.2525
     20 O         139.5827  143.8167  170.8945 O.3     1  UNL1       -0.4714
     21 N         142.9942  137.4542  159.7369 N.am    1  UNL1       -0.3018
     22 C         142.5006  138.3600  158.6480 C.2     1  UNL1        0.2426
     23 O         141.8974  139.6891  158.9939 O.2     1  UNL1       -0.2733
     24 H         143.3901  136.5819  159.5098 H       1  UNL1        0.1495
     25 C         142.6102  137.9368  157.2131 C.3     1  UNL1        0.1759
     26 N         143.0794  136.5532  156.8730 N.am    1  UNL1       -0.2931
     27 C         142.1788  135.6201  156.1191 C.2     1  UNL1        0.2462
     28 O         140.8092  136.0706  155.7053 O.2     1  UNL1       -0.2701
     29 H         143.9783  136.2576  157.1446 H       1  UNL1        0.1502
     30 C         142.6480  134.2365  155.7791 C.ar    1  UNL1        0.0533
     31 C         142.4289  133.6880  154.4003 C.ar    1  UNL1        0.0045
     32 C         142.8980  132.3044  154.0602 C.ar    1  UNL1        0.0001
     33 C         143.5862  131.4694  155.0990 C.ar    1  UNL1        0.0039
     34 C         143.8053  132.0179  156.4778 C.ar    1  UNL1        0.0716
     35 C         143.3362  133.4014  156.8179 C.ar    1  UNL1        0.0084
     36 C         144.4935  131.1828  157.5166 C.3     1  UNL1        0.4186
     37 F         145.1816  130.3478  158.5554 F       1  UNL1       -0.1659
     38 F         145.7432  131.9934  157.3403 F       1  UNL1       -0.1659
     39 F         143.2438  130.3721  157.6929 F       1  UNL1       -0.1659
@<TRIPOS>BOND
     1    19    20    1
     2    20    13    1
     3    13    14   ar
     4    14    15   ar
     5    15    16   ar
     6    16     5    1
     7     5     6    1
     8     5     7    1
     9     7     8    1
    10     8     9    1
    11     9     1    1
    12     1     2    1
    13     2     3    1
    14     3    21    1
    15    21    22   am
    16    22    23    2
    17    22    25    1
    18    25    26    1
    19    26    27   am
    20    27    28    2
    21    27    30    1
    22    30    31   ar
    23    31    32   ar
    24    32    33   ar
    25    33    34   ar
    26    34    36    1
    27    36    37    1
    28    36    38    1
    29    36    39    1
    30    34    35   ar
    31     3     4    1
    32     9    10    1
    33    10    11    1
    34    16    17   ar
    35    17    18   ar
    36    18    13   ar
    37    11     5    1
    38     4     1    1
    39    35    30   ar
    40     6    12    1
    41    21    24    1
    42    26    29    1
@<TRIPOS>MOLECULE
*****
 39 42 0 0 0
SMALL
GASTEIGER

@<TRIPOS>ATOM
      1 N         144.3546  142.7187  158.6887 N.3     1  UNL1       -0.2711
      2 C         143.0563  143.4406  158.8965 C.3     1  UNL1        0.0933
      3 C         143.1188  143.1309  160.3628 C.3     1  UNL1        0.1035
      4 C         144.4171  142.4090  160.1550 C.3     1  UNL1        0.0933
      5 C         146.9757  141.8442  155.1369 C.3     1  UNL1        0.1070
      6 O         146.9289  141.1179  153.8253 O.3     1  UNL1       -0.3827
      7 C         147.5038  142.6676  156.2741 C.3     1  UNL1        0.0325
      8 C         146.6300  142.9591  157.4581 C.3     1  UNL1        0.0187
      9 C         145.2283  142.4272  157.5048 C.3     1  UNL1        0.0578
     10 C         144.7003  141.6038  156.3676 C.3     1  UNL1        0.0187
     11 C         145.5740  141.3123  155.1837 C.3     1  UNL1        0.0325
     12 H         147.7815  141.2126  153.3727 H       1  UNL1        0.2107
     13 C         151.1321  142.6832  153.6302 C.ar    1  UNL1        0.1387
     14 C         149.9493  143.3181  152.9609 C.ar    1  UNL1        0.0367
     15 C         148.5639  143.0385  153.4632 C.ar    1  UNL1        0.0011
     16 C         148.3612  142.1239  154.6347 C.ar    1  UNL1        0.0019
     17 C         149.5439  141.4890  155.3039 C.ar    1  UNL1        0.0011
     18 C         150.9294  141.7687  154.8017 C.ar    1  UNL1        0.0367
     19 C         153.7030  142.3626  153.8238 C.3     1  UNL1        0.2525
     20 O         152.5176  142.9629  153.1279 O.3     1  UNL1       -0.4714
     21 N         142.2449  143.4224  161.5467 N.am    1  UNL1       -0.3018
     22 C         142.7342  144.3327  162.6339 C.2     1  UNL1        0.2426
     23 O         144.0971  144.9515  162.5373 O.2     1  UNL1       -0.2733
     24 H         141.3504  143.0163  161.6101 H       1  UNL1        0.1495
     25 C         141.8603  144.6242  163.8178 C.3     1  UNL1        0.1759
     26 N         141.6459  143.5750  164.8682 N.am    1  UNL1       -0.2931
     27 C         140.2552  143.1273  165.2082 C.2     1  UNL1        0.2462
     28 O         139.0790  143.7289  164.4978 O.2     1  UNL1       -0.2701
     29 H         142.4180  143.1803  165.3344 H       1  UNL1        0.1502
     30 C         140.0408  142.0782  166.2585 C.ar    1  UNL1        0.0533
     31 C         140.5343  142.3048  167.6567 C.ar    1  UNL1        0.0045
     32 C         140.3199  141.2557  168.7071 C.ar    1  UNL1        0.0001
     33 C         139.6120  139.9798  168.3591 C.ar    1  UNL1        0.0039
     34 C         139.1186  139.7531  166.9609 C.ar    1  UNL1        0.0716
     35 C         139.3329  140.8023  165.9106 C.ar    1  UNL1        0.0084
     36 C         138.4107  138.4772  166.6130 C.3     1  UNL1        0.4186
     37 F         137.7028  137.2014  166.2651 F       1  UNL1       -0.1659
     38 F         139.4370  138.1961  165.5558 F       1  UNL1       -0.1659
     39 F         137.3843  138.7583  167.6702 F       1  UNL1       -0.1659
@<TRIPOS>BOND
     1    19    20    1
     2    20    13    1
     3    13    14   ar
     4    14    15   ar
     5    15    16   ar
     6    16     5    1
     7     5     6    1
     8     5     7    1
     9     7     8    1
    10     8     9    1
    11     9     1    1
    12     1     2    1
    13     2     3    1
    14     3    21    1
    15    21    22   am
    16    22    23    2
    17    22    25    1
    18    25    26    1
    19    26    27   am
    20    27    28    2
    21    27    30    1
    22    30    31   ar
    23    31    32   ar
    24    32    33   ar
    25    33    34   ar
    26    34    36    1
    27    36    37    1
    28    36    38    1
    29    36    39    1
    30    34    35   ar
    31     3     4    1
    32     9    10    1
    33    10    11    1
    34    16    17   ar
    35    17    18   ar
    36    18    13   ar
    37    11     5    1
    38     4     1    1
    39    35    30   ar
    40     6    12    1
    41    21    24    1
    42    26    29    1
@<TRIPOS>MOLECULE
*****
 39 42 0 0 0
SMALL
GASTEIGER

@<TRIPOS>ATOM
      1 N         139.4903  140.0218  160.5176 N.3     1  UNL1       -0.2711
      2 C         138.0264  140.1896  160.2367 C.3     1  UNL1        0.0933
      3 C         138.3125  140.2211  158.7645 C.3     1  UNL1        0.1035
      4 C         139.7764  140.0533  159.0455 C.3     1  UNL1        0.0933
      5 C         141.9884  139.5990  164.2365 C.3     1  UNL1        0.1070
      6 O         142.8919  138.6071  164.9072 O.3     1  UNL1       -0.3827
      7 C         141.2143  140.8604  163.9925 C.3     1  UNL1        0.0325
      8 C         140.3816  141.0013  162.7528 C.3     1  UNL1        0.0187
      9 C         140.3230  139.8810  161.7572 C.3     1  UNL1        0.0578
     10 C         141.0971  138.6195  162.0013 C.3     1  UNL1        0.0187
     11 C         141.9299  138.4786  163.2409 C.3     1  UNL1        0.0325
     12 H         143.2200  138.9803  165.7403 H       1  UNL1        0.2107
     13 C         143.1055  141.9268  167.9221 C.ar    1  UNL1        0.1387
     14 C         143.3316  142.5201  166.5631 C.ar    1  UNL1        0.0367
     15 C         142.9592  141.7441  165.3346 C.ar    1  UNL1        0.0011
     16 C         142.3608  140.3749  165.4650 C.ar    1  UNL1        0.0019
     17 C         142.1347  139.7816  166.8240 C.ar    1  UNL1        0.0011
     18 C         142.5071  140.5576  168.0525 C.ar    1  UNL1        0.0367
     19 C         142.4279  143.0545  170.1624 C.3     1  UNL1        0.2525
     20 O         143.4778  142.7027  169.1506 O.3     1  UNL1       -0.4714
     21 N         137.4797  140.3620  157.5249 N.am    1  UNL1       -0.3018
     22 C         137.2995  141.7098  156.8917 C.2     1  UNL1        0.2426
     23 O         137.9520  142.9166  157.4980 O.2     1  UNL1       -0.2733
     24 H         137.0515  139.5699  157.1269 H       1  UNL1        0.1495
     25 C         136.4667  141.8507  155.6520 C.3     1  UNL1        0.1759
     26 N         134.9702  141.8111  155.7454 N.am    1  UNL1       -0.2931
     27 C         134.2599  140.4940  155.8503 C.2     1  UNL1        0.2462
     28 O         135.0463  139.2167  155.8619 O.2     1  UNL1       -0.2701
     29 H         134.4541  142.6494  155.7378 H       1  UNL1        0.1502
     30 C         132.7633  140.4544  155.9437 C.ar    1  UNL1        0.0533
     31 C         131.9463  141.5745  155.3715 C.ar    1  UNL1        0.0045
     32 C         130.4497  141.5349  155.4649 C.ar    1  UNL1        0.0001
     33 C         129.7702  140.3750  156.1305 C.ar    1  UNL1        0.0039
     34 C         130.5873  139.2548  156.7027 C.ar    1  UNL1        0.0716
     35 C         132.0839  139.2945  156.6094 C.ar    1  UNL1        0.0084
     36 C         129.9079  138.0949  157.3684 C.3     1  UNL1        0.4186
     37 F         129.2285  136.9351  158.0339 F       1  UNL1       -0.1659
     38 F         130.2379  138.6730  158.7125 F       1  UNL1       -0.1659
     39 F         129.5778  137.5168  156.0241 F       1  UNL1       -0.1659
@<TRIPOS>BOND
     1    19    20    1
     2    20    13    1
     3    13    14   ar
     4    14    15   ar
     5    15    16   ar
     6    16     5    1
     7     5     6    1
     8     5     7    1
     9     7     8    1
    10     8     9    1
    11     9     1    1
    12     1     2    1
    13     2     3    1
    14     3    21    1
    15    21    22   am
    16    22    23    2
    17    22    25    1
    18    25    26    1
    19    26    27   am
    20    27    28    2
    21    27    30    1
    22    30    31   ar
    23    31    32   ar
    24    32    33   ar
    25    33    34   ar
    26    34    36    1
    27    36    37    1
    28    36    38    1
    29    36    39    1
    30    34    35   ar
    31     3     4    1
    32     9    10    1
    33    10    11    1
    34    16    17   ar
    35    17    18   ar
    36    18    13   ar
    37    11     5    1
    38     4     1    1
    39    35    30   ar
    40     6    12    1
    41    21    24    1
    42    26    29    1
@<TRIPOS>MOLECULE
*****
 39 42 0 0 0
SMALL
GASTEIGER

@<TRIPOS>ATOM
      1 N         144.4130  141.9893  158.1714 N.3     1  UNL1       -0.2711
      2 C         144.5186  142.4238  159.6032 C.3     1  UNL1        0.0933
      3 C         143.0703  142.0931  159.8103 C.3     1  UNL1        0.1035
      4 C         142.9647  141.6586  158.3785 C.3     1  UNL1        0.0933
      5 C         147.2616  141.7690  154.6947 C.3     1  UNL1        0.1070
      6 O         147.3226  141.2447  153.2907 O.3     1  UNL1       -0.3827
      7 C         147.6846  142.4362  155.9698 C.3     1  UNL1        0.0325
      8 C         146.7351  142.5097  157.1287 C.3     1  UNL1        0.0187
      9 C         145.3626  141.9159  157.0125 C.3     1  UNL1        0.0578
     10 C         144.9395  141.2486  155.7375 C.3     1  UNL1        0.0187
     11 C         145.8891  141.1752  154.5786 C.3     1  UNL1        0.0325
     12 H         148.1920  141.4430  152.9090 H       1  UNL1        0.2107
     13 C         151.4428  143.0042  153.5804 C.ar    1  UNL1        0.1387
     14 C         150.2661  143.6575  152.9181 C.ar    1  UNL1        0.0367
     15 C         148.8723  143.2457  153.2896 C.ar    1  UNL1        0.0011
     16 C         148.6553  142.1807  154.3233 C.ar    1  UNL1        0.0019
     17 C         149.8320  141.5275  154.9855 C.ar    1  UNL1        0.0011
     18 C         151.2257  141.9392  154.6141 C.ar    1  UNL1        0.0367
     19 C         153.3365  144.7829  153.5716 C.3     1  UNL1        0.2525
     20 O         152.8365  143.4160  153.2089 O.3     1  UNL1       -0.4714
     21 N         142.1207  142.1665  160.9693 N.am    1  UNL1       -0.3018
     22 C         141.6583  143.5002  161.4766 C.2     1  UNL1        0.2426
     23 O         142.1453  144.7604  160.8250 O.2     1  UNL1       -0.2733
     24 H         141.8011  141.3394  161.3969 H       1  UNL1        0.1495
     25 C         140.7087  143.5736  162.6355 C.3     1  UNL1        0.1759
     26 N         141.2377  143.5810  164.0391 N.am    1  UNL1       -0.2931
     27 C         140.7972  142.5277  165.0121 C.2     1  UNL1        0.2462
     28 O         139.8277  141.4673  164.5814 O.2     1  UNL1       -0.2701
     29 H         141.8740  144.2770  164.3218 H       1  UNL1        0.1502
     30 C         141.3261  142.5351  166.4157 C.ar    1  UNL1        0.0533
     31 C         142.7704  142.2237  166.6746 C.ar    1  UNL1        0.0045
     32 C         143.2993  142.2310  168.0782 C.ar    1  UNL1        0.0001
     33 C         142.3839  142.5497  169.2230 C.ar    1  UNL1        0.0039
     34 C         140.9396  142.8611  168.9641 C.ar    1  UNL1        0.0716
     35 C         140.4107  142.8538  167.5605 C.ar    1  UNL1        0.0084
     36 C         140.0242  143.1799  170.1089 C.3     1  UNL1        0.4186
     37 F         139.1089  143.4986  171.2536 F       1  UNL1       -0.1659
     38 F         139.5810  141.7476  170.1532 F       1  UNL1       -0.1659
     39 F         140.4675  144.6122  170.0646 F       1  UNL1       -0.1659
@<TRIPOS>BOND
     1    19    20    1
     2    20    13    1
     3    13    14   ar
     4    14    15   ar
     5    15    16   ar
     6    16     5    1
     7     5     6    1
     8     5     7    1
     9     7     8    1
    10     8     9    1
    11     9     1    1
    12     1     2    1
    13     2     3    1
    14     3    21    1
    15    21    22   am
    16    22    23    2
    17    22    25    1
    18    25    26    1
    19    26    27   am
    20    27    28    2
    21    27    30    1
    22    30    31   ar
    23    31    32   ar
    24    32    33   ar
    25    33    34   ar
    26    34    36    1
    27    36    37    1
    28    36    38    1
    29    36    39    1
    30    34    35   ar
    31     3     4    1
    32     9    10    1
    33    10    11    1
    34    16    17   ar
    35    17    18   ar
    36    18    13   ar
    37    11     5    1
    38     4     1    1
    39    35    30   ar
    40     6    12    1
    41    21    24    1
    42    26    29    1
@<TRIPOS>MOLECULE
*****
 39 42 0 0 0
SMALL
GASTEIGER

@<TRIPOS>ATOM
      1 N         140.5030  143.4890  158.9339 N.3     1  UNL1       -0.2711
      2 C         141.2222  143.6638  160.2387 C.3     1  UNL1        0.0933
      3 C         141.1959  142.1793  160.4520 C.3     1  UNL1        0.1035
      4 C         140.4767  142.0045  159.1473 C.3     1  UNL1        0.0933
      5 C         139.0332  146.2675  155.7138 C.3     1  UNL1        0.1070
      6 O         138.2095  146.2403  154.4605 O.3     1  UNL1       -0.3827
      7 C         139.8823  146.7971  156.8311 C.3     1  UNL1        0.0325
      8 C         140.3723  145.8709  157.9046 C.3     1  UNL1        0.0187
      9 C         140.0131  144.4152  157.8606 C.3     1  UNL1        0.0578
     10 C         139.1640  143.8857  156.7432 C.3     1  UNL1        0.0187
     11 C         138.6740  144.8118  155.6698 C.3     1  UNL1        0.0325
     12 H         138.1658  147.1327  154.0828 H       1  UNL1        0.2107
     13 C         139.2525  150.6062  154.5399 C.ar    1  UNL1        0.1387
     14 C         138.5579  150.2064  155.8079 C.ar    1  UNL1        0.0367
     15 C         138.4848  148.7602  156.1991 C.ar    1  UNL1        0.0011
     16 C         139.1063  147.7137  155.3225 C.ar    1  UNL1        0.0019
     17 C         139.8009  148.1135  154.0546 C.ar    1  UNL1        0.0011
     18 C         139.8740  149.5597  153.6633 C.ar    1  UNL1        0.0367
     19 C         138.7007  152.5148  152.8659 C.3     1  UNL1        0.2525
     20 O         139.3257  152.0524  154.1487 O.3     1  UNL1       -0.4714
     21 N         141.6858  141.2531  161.5254 N.am    1  UNL1       -0.3018
     22 C         140.7370  140.7506  162.5729 C.2     1  UNL1        0.2426
     23 O         139.2984  141.1743  162.5471 O.2     1  UNL1       -0.2733
     24 H         142.6301  140.9750  161.5424 H       1  UNL1        0.1495
     25 C         141.2270  139.8244  163.6464 C.3     1  UNL1        0.1759
     26 N         141.1364  140.2317  165.0872 N.am    1  UNL1       -0.2931
     27 C         139.8679  140.0005  165.8536 C.2     1  UNL1        0.2462
     28 O         138.6900  139.3620  165.1792 O.2     1  UNL1       -0.2701
     29 H         141.9095  140.6508  165.5298 H       1  UNL1        0.1502
     30 C         139.7773  140.4078  167.2944 C.ar    1  UNL1        0.0533
     31 C         138.8123  139.7153  168.2103 C.ar    1  UNL1        0.0045
     32 C         138.7217  140.1226  169.6511 C.ar    1  UNL1        0.0001
     33 C         139.5963  141.2225  170.1760 C.ar    1  UNL1        0.0039
     34 C         140.5613  141.9151  169.2600 C.ar    1  UNL1        0.0716
     35 C         140.6519  141.5077  167.8192 C.ar    1  UNL1        0.0084
     36 C         141.4359  143.0150  169.7848 C.3     1  UNL1        0.4186
     37 F         142.3103  144.1148  170.3096 F       1  UNL1       -0.1659
     38 F         142.6176  142.0919  169.7501 F       1  UNL1       -0.1659
     39 F         140.2540  143.9381  169.8195 F       1  UNL1       -0.1659
@<TRIPOS>BOND
     1    19    20    1
     2    20    13    1
     3    13    14   ar
     4    14    15   ar
     5    15    16   ar
     6    16     5    1
     7     5     6    1
     8     5     7    1
     9     7     8    1
    10     8     9    1
    11     9     1    1
    12     1     2    1
    13     2     3    1
    14     3    21    1
    15    21    22   am
    16    22    23    2
    17    22    25    1
    18    25    26    1
    19    26    27   am
    20    27    28    2
    21    27    30    1
    22    30    31   ar
    23    31    32   ar
    24    32    33   ar
    25    33    34   ar
    26    34    36    1
    27    36    37    1
    28    36    38    1
    29    36    39    1
    30    34    35   ar
    31     3     4    1
    32     9    10    1
    33    10    11    1
    34    16    17   ar
    35    17    18   ar
    36    18    13   ar
    37    11     5    1
    38     4     1    1
    39    35    30   ar
    40     6    12    1
    41    21    24    1
    42    26    29    1
@<TRIPOS>MOLECULE
*****
 39 42 0 0 0
SMALL
GASTEIGER

@<TRIPOS>ATOM
      1 N         139.9759  141.8743  160.2756 N.3     1  UNL1       -0.2711
      2 C         140.1431  142.3051  158.8485 C.3     1  UNL1        0.0933
      3 C         138.6544  142.2787  158.6662 C.3     1  UNL1        0.1035
      4 C         138.4873  141.8479  160.0933 C.3     1  UNL1        0.0933
      5 C         142.7797  141.0167  163.6892 C.3     1  UNL1        0.1070
      6 O         144.2131  140.6488  163.9342 O.3     1  UNL1       -0.3827
      7 C         141.3458  141.3602  163.9647 C.3     1  UNL1        0.0325
      8 C         140.4112  141.6461  162.8268 C.3     1  UNL1        0.0187
      9 C         140.9105  141.5885  161.4135 C.3     1  UNL1        0.0578
     10 C         142.3444  141.2450  161.1381 C.3     1  UNL1        0.0187
     11 C         143.2790  140.9590  162.2760 C.3     1  UNL1        0.0325
     12 H         144.3671  140.5656  164.8883 H       1  UNL1        0.2107
     13 C         142.7752  140.8062  168.1843 C.ar    1  UNL1        0.1387
     14 C         142.9504  142.1271  167.4955 C.ar    1  UNL1        0.0367
     15 C         142.9519  142.1973  165.9971 C.ar    1  UNL1        0.0011
     16 C         142.7782  140.9465  165.1876 C.ar    1  UNL1        0.0019
     17 C         142.6031  139.6256  165.8764 C.ar    1  UNL1        0.0011
     18 C         142.6016  139.5555  167.3748 C.ar    1  UNL1        0.0367
     19 C         142.4816  139.4365  170.3724 C.3     1  UNL1        0.2525
     20 O         142.7737  140.7361  169.6827 O.3     1  UNL1       -0.4714
     21 N         137.7199  142.5646  157.5282 N.am    1  UNL1       -0.3018
     22 C         137.2771  141.4527  156.6239 C.2     1  UNL1        0.2426
     23 O         137.7688  140.0551  156.8576 O.2     1  UNL1       -0.2733
     24 H         137.3972  143.4820  157.3749 H       1  UNL1        0.1495
     25 C         136.3426  141.7386  155.4859 C.3     1  UNL1        0.1759
     26 N         134.8602  141.7398  155.7150 N.am    1  UNL1       -0.2931
     27 C         134.1143  140.4415  155.8054 C.2     1  UNL1        0.2462
     28 O         134.8508  139.1422  155.6668 O.2     1  UNL1       -0.2701
     29 H         134.3769  142.5926  155.8060 H       1  UNL1        0.1502
     30 C         132.6319  140.4427  156.0345 C.ar    1  UNL1        0.0533
     31 C         131.7625  141.4305  155.3146 C.ar    1  UNL1        0.0045
     32 C         130.2801  141.4317  155.5437 C.ar    1  UNL1        0.0001
     33 C         129.6671  140.4450  156.4927 C.ar    1  UNL1        0.0039
     34 C         130.5365  139.4571  157.2126 C.ar    1  UNL1        0.0716
     35 C         132.0189  139.4560  156.9835 C.ar    1  UNL1        0.0084
     36 C         129.9235  138.4704  158.1616 C.3     1  UNL1        0.4186
     37 F         129.3105  137.4837  159.1106 F       1  UNL1       -0.1659
     38 F         131.2834  138.1509  158.7078 F       1  UNL1       -0.1659
     39 F         128.5634  138.7899  157.6154 F       1  UNL1       -0.1659
@<TRIPOS>BOND
     1    19    20    1
     2    20    13    1
     3    13    14   ar
     4    14    15   ar
     5    15    16   ar
     6    16     5    1
     7     5     6    1
     8     5     7    1
     9     7     8    1
    10     8     9    1
    11     9     1    1
    12     1     2    1
    13     2     3    1
    14     3    21    1
    15    21    22   am
    16    22    23    2
    17    22    25    1
    18    25    26    1
    19    26    27   am
    20    27    28    2
    21    27    30    1
    22    30    31   ar
    23    31    32   ar
    24    32    33   ar
    25    33    34   ar
    26    34    36    1
    27    36    37    1
    28    36    38    1
    29    36    39    1
    30    34    35   ar
    31     3     4    1
    32     9    10    1
    33    10    11    1
    34    16    17   ar
    35    17    18   ar
    36    18    13   ar
    37    11     5    1
    38     4     1    1
    39    35    30   ar
    40     6    12    1
    41    21    24    1
    42    26    29    1
@<TRIPOS>MOLECULE
*****
 39 42 0 0 0
SMALL
GASTEIGER

@<TRIPOS>ATOM
      1 N         141.9755  140.2152  160.2351 N.3     1  UNL1       -0.2711
      2 C         141.7118  138.7649  159.9571 C.3     1  UNL1        0.0933
      3 C         141.9095  139.0101  158.4905 C.3     1  UNL1        0.1035
      4 C         142.1732  140.4604  158.7685 C.3     1  UNL1        0.0933
      5 C         142.1154  142.7713  163.9359 C.3     1  UNL1        0.1070
      6 O         142.3732  144.1921  164.3420 O.3     1  UNL1       -0.3827
      7 C         141.7929  141.3105  164.0452 C.3     1  UNL1        0.0325
      8 C         141.7462  140.4584  162.8116 C.3     1  UNL1        0.0187
      9 C         142.0221  141.0672  161.4687 C.3     1  UNL1        0.0578
     10 C         142.3446  142.5280  161.3594 C.3     1  UNL1        0.0187
     11 C         142.3912  143.3801  162.5931 C.3     1  UNL1        0.0325
     12 H         142.2857  144.2742  165.3046 H       1  UNL1        0.2107
     13 C         141.5564  142.4253  168.3876 C.ar    1  UNL1        0.1387
     14 C         140.3989  142.8085  167.5140 C.ar    1  UNL1        0.0367
     15 C         140.5853  142.9239  166.0301 C.ar    1  UNL1        0.0011
     16 C         141.9291  142.6560  165.4198 C.ar    1  UNL1        0.0019
     17 C         143.0865  142.2728  166.2935 C.ar    1  UNL1        0.0011
     18 C         142.9002  142.1574  167.7774 C.ar    1  UNL1        0.0367
     19 C         139.9982  142.4272  170.4665 C.3     1  UNL1        0.2525
     20 O         141.3701  142.3100  169.8715 O.3     1  UNL1       -0.4714
     21 N         141.8628  138.1581  157.2569 N.am    1  UNL1       -0.3018
     22 C         140.5411  137.7617  156.6687 C.2     1  UNL1        0.2426
     23 O         139.2661  138.2173  157.3141 O.2     1  UNL1       -0.2733
     24 H         142.6997  137.8590  156.8332 H       1  UNL1        0.1495
     25 C         140.4945  136.9096  155.4350 C.3     1  UNL1        0.1759
     26 N         140.6518  135.4219  155.5447 N.am    1  UNL1       -0.2931
     27 C         142.0141  134.8240  155.7368 C.2     1  UNL1        0.2462
     28 O         143.2188  135.7138  155.8191 O.2     1  UNL1       -0.2701
     29 H         139.8611  134.8379  155.4907 H       1  UNL1        0.1502
     30 C         142.1714  133.3363  155.8465 C.ar    1  UNL1        0.0533
     31 C         141.2836  132.4274  155.0493 C.ar    1  UNL1        0.0045
     32 C         141.4409  130.9397  155.1590 C.ar    1  UNL1        0.0001
     33 C         142.4862  130.3610  156.0659 C.ar    1  UNL1        0.0039
     34 C         143.3741  131.2698  156.8630 C.ar    1  UNL1        0.0716
     35 C         143.2168  132.7575  156.7534 C.ar    1  UNL1        0.0084
     36 C         144.4194  130.6911  157.7699 C.3     1  UNL1        0.4186
     37 F         145.4646  130.1124  158.6768 F       1  UNL1       -0.1659
     38 F         145.4416  131.6195  157.1842 F       1  UNL1       -0.1659
     39 F         143.3972  129.7626  158.3557 F       1  UNL1       -0.1659
@<TRIPOS>BOND
     1    19    20    1
     2    20    13    1
     3    13    14   ar
     4    14    15   ar
     5    15    16   ar
     6    16     5    1
     7     5     6    1
     8     5     7    1
     9     7     8    1
    10     8     9    1
    11     9     1    1
    12     1     2    1
    13     2     3    1
    14     3    21    1
    15    21    22   am
    16    22    23    2
    17    22    25    1
    18    25    26    1
    19    26    27   am
    20    27    28    2
    21    27    30    1
    22    30    31   ar
    23    31    32   ar
    24    32    33   ar
    25    33    34   ar
    26    34    36    1
    27    36    37    1
    28    36    38    1
    29    36    39    1
    30    34    35   ar
    31     3     4    1
    32     9    10    1
    33    10    11    1
    34    16    17   ar
    35    17    18   ar
    36    18    13   ar
    37    11     5    1
    38     4     1    1
    39    35    30   ar
    40     6    12    1
    41    21    24    1
    42    26    29    1
@<TRIPOS>MOLECULE
*****
 39 42 0 0 0
SMALL
GASTEIGER

@<TRIPOS>ATOM
      1 N         140.8300  143.5040  158.9322 N.3     1  UNL1       -0.2711
      2 C         142.1125  142.7437  159.0964 C.3     1  UNL1        0.0933
      3 C         141.6450  142.2433  160.4310 C.3     1  UNL1        0.1035
      4 C         140.3625  143.0037  160.2668 C.3     1  UNL1        0.0933
      5 C         139.1012  146.1782  155.7527 C.3     1  UNL1        0.1070
      6 O         138.1455  146.1211  154.5980 O.3     1  UNL1       -0.3827
      7 C         140.0822  146.7296  156.7444 C.3     1  UNL1        0.0325
      8 C         140.6585  145.8382  157.8043 C.3     1  UNL1        0.0187
      9 C         140.2538  144.3955  157.8724 C.3     1  UNL1        0.0578
     10 C         139.2728  143.8441  156.8807 C.3     1  UNL1        0.0187
     11 C         138.6965  144.7355  155.8208 C.3     1  UNL1        0.0325
     12 H         138.0873  146.9958  154.1828 H       1  UNL1        0.2107
     13 C         139.3197  150.4469  154.3453 C.ar    1  UNL1        0.1387
     14 C         138.6322  150.1173  155.6371 C.ar    1  UNL1        0.0367
     15 C         138.5593  148.6945  156.1062 C.ar    1  UNL1        0.0011
     16 C         139.1740  147.6011  155.2835 C.ar    1  UNL1        0.0019
     17 C         139.8615  147.9307  153.9918 C.ar    1  UNL1        0.0011
     18 C         139.9344  149.3536  153.5227 C.ar    1  UNL1        0.0367
     19 C         138.8566  152.2427  152.5257 C.3     1  UNL1        0.2525
     20 O         139.3925  151.8698  153.8762 O.3     1  UNL1       -0.4714
     21 N         142.2213  141.3518  161.4908 N.am    1  UNL1       -0.3018
     22 C         143.4295  141.7902  162.2641 C.2     1  UNL1        0.2426
     23 O         144.0614  143.1201  161.9776 O.2     1  UNL1       -0.2733
     24 H         141.8066  140.4789  161.6789 H       1  UNL1        0.1495
     25 C         144.0058  140.8988  163.3239 C.3     1  UNL1        0.1759
     26 N         143.7394  141.1860  164.7719 N.am    1  UNL1       -0.2931
     27 C         142.3457  141.0727  165.3148 C.2     1  UNL1        0.2462
     28 O         141.2185  140.6723  164.4098 O.2     1  UNL1       -0.2701
     29 H         144.4793  141.4488  165.3658 H       1  UNL1        0.1502
     30 C         142.0793  141.3599  166.7628 C.ar    1  UNL1        0.0533
     31 C         143.0656  142.1579  167.5629 C.ar    1  UNL1        0.0045
     32 C         142.7992  142.4451  169.0109 C.ar    1  UNL1        0.0001
     33 C         141.5464  141.9343  169.6586 C.ar    1  UNL1        0.0039
     34 C         140.5600  141.1364  168.8585 C.ar    1  UNL1        0.0716
     35 C         140.8264  140.8492  167.4105 C.ar    1  UNL1        0.0084
     36 C         139.3072  140.6256  169.5062 C.3     1  UNL1        0.4186
     37 F         138.0544  140.1149  170.1539 F       1  UNL1       -0.1659
     38 F         139.0804  139.7064  168.3428 F       1  UNL1       -0.1659
     39 F         139.5339  141.5448  170.6697 F       1  UNL1       -0.1659
@<TRIPOS>BOND
     1    19    20    1
     2    20    13    1
     3    13    14   ar
     4    14    15   ar
     5    15    16   ar
     6    16     5    1
     7     5     6    1
     8     5     7    1
     9     7     8    1
    10     8     9    1
    11     9     1    1
    12     1     2    1
    13     2     3    1
    14     3    21    1
    15    21    22   am
    16    22    23    2
    17    22    25    1
    18    25    26    1
    19    26    27   am
    20    27    28    2
    21    27    30    1
    22    30    31   ar
    23    31    32   ar
    24    32    33   ar
    25    33    34   ar
    26    34    36    1
    27    36    37    1
    28    36    38    1
    29    36    39    1
    30    34    35   ar
    31     3     4    1
    32     9    10    1
    33    10    11    1
    34    16    17   ar
    35    17    18   ar
    36    18    13   ar
    37    11     5    1
    38     4     1    1
    39    35    30   ar
    40     6    12    1
    41    21    24    1
    42    26    29    1
@<TRIPOS>MOLECULE
*****
 39 42 0 0 0
SMALL
GASTEIGER

@<TRIPOS>ATOM
      1 N         140.3950  143.3180  159.0889 N.3     1  UNL1       -0.2711
      2 C         141.6334  143.1702  159.9223 C.3     1  UNL1        0.0933
      3 C         141.0074  142.0161  160.6477 C.3     1  UNL1        0.1035
      4 C         139.7690  142.1639  159.8144 C.3     1  UNL1        0.0933
      5 C         139.0960  146.0798  155.7822 C.3     1  UNL1        0.1070
      6 O         138.3191  146.0507  154.4994 O.3     1  UNL1       -0.3827
      7 C         139.9123  146.6089  156.9240 C.3     1  UNL1        0.0325
      8 C         140.3453  145.6883  158.0263 C.3     1  UNL1        0.0187
      9 C         139.9620  144.2387  157.9867 C.3     1  UNL1        0.0578
     10 C         139.1457  143.7096  156.8449 C.3     1  UNL1        0.0187
     11 C         138.7127  144.6302  155.7426 C.3     1  UNL1        0.0325
     12 H         138.3054  146.9388  154.1094 H       1  UNL1        0.2107
     13 C         139.4364  150.3985  154.5643 C.ar    1  UNL1        0.1387
     14 C         138.6305  150.0210  155.7717 C.ar    1  UNL1        0.0367
     15 C         138.5170  148.5815  156.1777 C.ar    1  UNL1        0.0011
     16 C         139.2094  147.5194  155.3762 C.ar    1  UNL1        0.0019
     17 C         140.0154  147.8968  154.1688 C.ar    1  UNL1        0.0011
     18 C         140.1288  149.3364  153.7628 C.ar    1  UNL1        0.0367
     19 C         138.8612  152.3239  152.9175 C.3     1  UNL1        0.2525
     20 O         139.5499  151.8380  154.1583 O.3     1  UNL1       -0.4714
     21 N         141.4405  141.0954  161.7500 N.am    1  UNL1       -0.3018
     22 C         142.2232  139.8569  161.4286 C.2     1  UNL1        0.2426
     23 O         142.5730  139.5390  160.0051 O.2     1  UNL1       -0.2733
     24 H         141.2109  141.3041  162.6844 H       1  UNL1        0.1495
     25 C         142.6563  138.9362  162.5309 C.3     1  UNL1        0.1759
     26 N         141.9861  139.0037  163.8711 N.am    1  UNL1       -0.2931
     27 C         142.6204  139.7775  164.9887 C.2     1  UNL1        0.2462
     28 O         143.9248  140.4838  164.7659 O.2     1  UNL1       -0.2701
     29 H         141.1300  138.5401  164.0173 H       1  UNL1        0.1502
     30 C         141.9502  139.8450  166.3290 C.ar    1  UNL1        0.0533
     31 C         140.4725  140.0872  166.4173 C.ar    1  UNL1        0.0045
     32 C         139.8023  140.1547  167.7575 C.ar    1  UNL1        0.0001
     33 C         140.6099  139.9799  169.0095 C.ar    1  UNL1        0.0039
     34 C         142.0875  139.7376  168.9212 C.ar    1  UNL1        0.0716
     35 C         142.7577  139.6702  167.5809 C.ar    1  UNL1        0.0084
     36 C         142.8950  139.5628  170.1732 C.3     1  UNL1        0.4186
     37 F         143.7025  139.3880  171.4250 F       1  UNL1       -0.1659
     38 F         143.2825  141.0111  170.1254 F       1  UNL1       -0.1659
     39 F         142.5075  138.1145  170.2209 F       1  UNL1       -0.1659
@<TRIPOS>BOND
     1    19    20    1
     2    20    13    1
     3    13    14   ar
     4    14    15   ar
     5    15    16   ar
     6    16     5    1
     7     5     6    1
     8     5     7    1
     9     7     8    1
    10     8     9    1
    11     9     1    1
    12     1     2    1
    13     2     3    1
    14     3    21    1
    15    21    22   am
    16    22    23    2
    17    22    25    1
    18    25    26    1
    19    26    27   am
    20    27    28    2
    21    27    30    1
    22    30    31   ar
    23    31    32   ar
    24    32    33   ar
    25    33    34   ar
    26    34    36    1
    27    36    37    1
    28    36    38    1
    29    36    39    1
    30    34    35   ar
    31     3     4    1
    32     9    10    1
    33    10    11    1
    34    16    17   ar
    35    17    18   ar
    36    18    13   ar
    37    11     5    1
    38     4     1    1
    39    35    30   ar
    40     6    12    1
    41    21    24    1
    42    26    29    1
