@<TRIPOS>MOLECULE
*****
 35 40 0 0 0
SMALL
GASTEIGER

@<TRIPOS>ATOM
      1 N         139.8498  138.5152  162.0763 N.3     1  UNL1       -0.2695
      2 C         139.7832  138.2545  163.5519 C.3     1  UNL1        0.0939
      3 C         141.0236  138.3595  164.3889 C.3     1  UNL1        0.1107
      4 N         142.3306  138.7252  163.7500 N.am    1  UNL1       -0.2764
      5 C         143.5710  138.8302  164.5869 C.2     1  UNL1        0.2301
      6 O         144.8780  139.1958  163.9481 O.2     1  UNL1       -0.2745
      7 C         142.3972  138.9858  162.2744 C.3     1  UNL1        0.1107
      8 C         141.1568  138.8808  161.4375 C.3     1  UNL1        0.0939
      9 C         138.6094  138.4102  161.2394 C.3     1  UNL1        0.0769
     10 C         137.7033  139.5960  161.0892 C.3     1  UNL1        0.0433
     11 O         138.4914  145.1176  165.5078 O.2     1  UNL1       -0.2449
     12 C         138.7828  144.6321  164.1188 C.2     1  UNL1        0.3413
     13 O         139.5000  145.4003  163.0486 O.3     1  UNL1       -0.4404
     14 C         139.5686  144.5360  161.8245 C.3     1  UNL1        0.2352
     15 C         138.8938  143.2336  162.1382 C.ar    1  UNL1        0.0232
     16 C         138.4082  143.2930  163.5562 C.ar    1  UNL1        0.0748
     17 C         137.6876  142.1200  164.1519 C.ar    1  UNL1        0.0059
     18 C         137.4526  140.8877  163.3295 C.ar    1  UNL1       -0.0043
     19 C         137.9383  140.8284  161.9116 C.ar    1  UNL1       -0.0249
     20 C         138.6589  142.0013  161.3159 C.ar    1  UNL1       -0.0267
     21 C         139.1445  141.9420  159.8980 C.3     1  UNL1        0.0219
     22 C         140.0625  141.3634  158.8624 C.3     1  UNL1        0.0047
     23 C         139.0676  142.4178  158.4775 C.3     1  UNL1        0.0047
     24 C         143.5044  138.5695  166.0626 C.3     1  UNL1        0.1116
     25 C         142.7630  139.5168  166.9587 C.ar    1  UNL1       -0.0130
     26 C         142.2660  140.8254  166.4197 C.ar    1  UNL1       -0.0022
     27 C         141.5247  141.7727  167.3159 C.ar    1  UNL1        0.0190
     28 C         141.2802  141.4113  168.7510 C.ar    1  UNL1        0.0862
     29 C         141.7770  140.1027  169.2901 C.ar    1  UNL1        0.0190
     30 C         142.5185  139.1553  168.3940 C.ar    1  UNL1       -0.0022
     31 N         140.5387  142.3586  169.6471 N.ar    1  UNL1       -0.1886
     32 C         140.6788  143.8520  169.6600 C.ar    1  UNL1        0.2258
     33 N         139.7538  144.3952  170.7084 N.ar    1  UNL1       -0.1045
     34 N         139.0420  143.2376  171.3435 N.ar    1  UNL1       -0.0222
     35 N         139.5272  141.9789  170.6875 N.ar    1  UNL1       -0.0385
@<TRIPOS>BOND
     1    11    12    2
     2    12    13    1
     3    13    14    1
     4    14    15    1
     5    15    16   ar
     6    16    17   ar
     7    17    18   ar
     8    18    19   ar
     9    19    10    1
    10    10     9    1
    11     9     1    1
    12     1     2    1
    13     2     3    1
    14     3     4    1
    15     4     5   am
    16     5     6    2
    17     5    24    1
    18    24    25    1
    19    25    26   ar
    20    26    27   ar
    21    27    28   ar
    22    28    31    1
    23    31    32   ar
    24    32    33   ar
    25    33    34   ar
    26    34    35   ar
    27    28    29   ar
    28    29    30   ar
    29     4     7    1
    30     7     8    1
    31    19    20   ar
    32    20    21    1
    33    21    22    1
    34    22    23    1
    35    16    12    1
    36     8     1    1
    37    23    21    1
    38    20    15   ar
    39    30    25   ar
    40    35    31   ar
@<TRIPOS>MOLECULE
*****
 35 40 0 0 0
SMALL
GASTEIGER

@<TRIPOS>ATOM
      1 N         142.7239  141.5699  161.0860 N.3     1  UNL1       -0.2695
      2 C         143.4481  141.4658  162.3953 C.3     1  UNL1        0.0939
      3 C         143.1671  140.3176  163.3187 C.3     1  UNL1        0.1107
      4 N         142.1617  139.2735  162.9326 N.am    1  UNL1       -0.2764
      5 C         141.8807  138.1253  163.8560 C.2     1  UNL1        0.2301
      6 O         140.8753  137.0811  163.4699 O.2     1  UNL1       -0.2745
      7 C         141.4375  139.3776  161.6232 C.3     1  UNL1        0.1107
      8 C         141.7186  140.5258  160.6999 C.3     1  UNL1        0.0939
      9 C         143.0049  142.7181  160.1625 C.3     1  UNL1        0.0769
     10 C         142.3083  144.0310  160.3647 C.3     1  UNL1        0.0433
     11 O         138.6466  145.2431  166.3443 O.2     1  UNL1       -0.2449
     12 C         138.5317  144.7174  164.9441 C.2     1  UNL1        0.3413
     13 O         137.2863  144.1803  164.3034 O.3     1  UNL1       -0.4404
     14 C         137.6269  143.7675  162.9021 C.3     1  UNL1        0.2352
     15 C         139.0828  144.0496  162.6767 C.ar    1  UNL1        0.0232
     16 C         139.6420  144.6367  163.9388 C.ar    1  UNL1        0.0748
     17 C         141.0900  145.0219  164.0094 C.ar    1  UNL1        0.0059
     18 C         141.9787  144.8199  162.8180 C.ar    1  UNL1       -0.0043
     19 C         141.4196  144.2329  161.5561 C.ar    1  UNL1       -0.0249
     20 C         139.9716  143.8477  161.4854 C.ar    1  UNL1       -0.0267
     21 C         139.4124  143.2607  160.2234 C.3     1  UNL1        0.0219
     22 C         139.3054  143.2597  158.7272 C.3     1  UNL1        0.0047
     23 C         138.5509  142.2447  159.5337 C.3     1  UNL1        0.0047
     24 C         142.6050  138.0213  165.1655 C.3     1  UNL1        0.1116
     25 C         142.1549  138.8406  166.3386 C.ar    1  UNL1       -0.0130
     26 C         140.7818  139.4443  166.3491 C.ar    1  UNL1       -0.0022
     27 C         140.3318  140.2636  167.5222 C.ar    1  UNL1        0.0190
     28 C         141.2548  140.4792  168.6847 C.ar    1  UNL1        0.0862
     29 C         142.6278  139.8755  168.6743 C.ar    1  UNL1        0.0190
     30 C         143.0780  139.0561  167.5012 C.ar    1  UNL1       -0.0022
     31 N         140.8046  141.2985  169.8579 N.ar    1  UNL1       -0.1886
     32 C         139.9865  142.5542  169.7943 C.ar    1  UNL1        0.2258
     33 N         139.7698  143.0378  171.1976 N.ar    1  UNL1       -0.1045
     34 N         140.4540  142.0810  172.1284 N.ar    1  UNL1       -0.0222
     35 N         141.0935  141.0061  171.3004 N.ar    1  UNL1       -0.0385
@<TRIPOS>BOND
     1    11    12    2
     2    12    13    1
     3    13    14    1
     4    14    15    1
     5    15    16   ar
     6    16    17   ar
     7    17    18   ar
     8    18    19   ar
     9    19    10    1
    10    10     9    1
    11     9     1    1
    12     1     2    1
    13     2     3    1
    14     3     4    1
    15     4     5   am
    16     5     6    2
    17     5    24    1
    18    24    25    1
    19    25    26   ar
    20    26    27   ar
    21    27    28   ar
    22    28    31    1
    23    31    32   ar
    24    32    33   ar
    25    33    34   ar
    26    34    35   ar
    27    28    29   ar
    28    29    30   ar
    29     4     7    1
    30     7     8    1
    31    19    20   ar
    32    20    21    1
    33    21    22    1
    34    22    23    1
    35    16    12    1
    36     8     1    1
    37    23    21    1
    38    20    15   ar
    39    30    25   ar
    40    35    31   ar
@<TRIPOS>MOLECULE
*****
 35 40 0 0 0
SMALL
GASTEIGER

@<TRIPOS>ATOM
      1 N         138.3689  141.3567  161.8347 N.3     1  UNL1       -0.2695
      2 C         138.0854  141.8717  163.2146 C.3     1  UNL1        0.0939
      3 C         138.1626  140.9449  164.3917 C.3     1  UNL1        0.1107
      4 N         138.5234  139.5032  164.1886 N.am    1  UNL1       -0.2764
      5 C         138.6006  138.5764  165.3655 C.2     1  UNL1        0.2301
      6 O         138.9614  137.1347  165.1624 O.2     1  UNL1       -0.2745
      7 C         138.8069  138.9883  162.8085 C.3     1  UNL1        0.1107
      8 C         138.7297  139.9150  161.6316 C.3     1  UNL1        0.0939
      9 C         138.2917  142.2835  160.6577 C.3     1  UNL1        0.0769
     10 C         139.5491  142.7433  159.9815 C.3     1  UNL1        0.0433
     11 O         145.9208  141.6453  162.9527 O.2     1  UNL1       -0.2449
     12 C         144.7207  142.5450  162.9681 C.2     1  UNL1        0.3413
     13 O         144.5296  143.7450  163.8476 O.3     1  UNL1       -0.4404
     14 C         143.1918  144.3444  163.5298 C.3     1  UNL1        0.2352
     15 C         142.5560  143.5148  162.4539 C.ar    1  UNL1        0.0232
     16 C         143.5009  142.4027  162.1068 C.ar    1  UNL1        0.0748
     17 C         143.1286  141.4042  161.0512 C.ar    1  UNL1        0.0059
     18 C         141.8113  141.5178  160.3428 C.ar    1  UNL1       -0.0043
     19 C         140.8664  142.6298  160.6899 C.ar    1  UNL1       -0.0249
     20 C         141.2387  143.6283  161.7455 C.ar    1  UNL1       -0.0267
     21 C         140.2938  144.7403  162.0926 C.3     1  UNL1        0.0219
     22 C         139.2951  145.3513  163.0303 C.3     1  UNL1        0.0047
     23 C         139.6559  146.0555  161.7561 C.3     1  UNL1        0.0047
     24 C         138.3170  139.0915  166.7455 C.3     1  UNL1        0.1116
     25 C         139.3454  139.9122  167.4657 C.ar    1  UNL1       -0.0130
     26 C         140.5918  140.3465  166.7530 C.ar    1  UNL1       -0.0022
     27 C         141.6203  141.1672  167.4732 C.ar    1  UNL1        0.0190
     28 C         141.4023  141.5537  168.9060 C.ar    1  UNL1        0.0862
     29 C         140.1560  141.1194  169.6188 C.ar    1  UNL1        0.0190
     30 C         139.1275  140.2987  168.8986 C.ar    1  UNL1       -0.0022
     31 N         142.4309  142.3744  169.6262 N.ar    1  UNL1       -0.1886
     32 C         143.9186  142.2482  169.4818 C.ar    1  UNL1        0.2258
     33 N         144.5594  143.2612  170.3835 N.ar    1  UNL1       -0.1045
     34 N         143.4679  144.0135  171.0852 N.ar    1  UNL1       -0.0222
     35 N         142.1524  143.4654  170.6172 N.ar    1  UNL1       -0.0385
@<TRIPOS>BOND
     1    11    12    2
     2    12    13    1
     3    13    14    1
     4    14    15    1
     5    15    16   ar
     6    16    17   ar
     7    17    18   ar
     8    18    19   ar
     9    19    10    1
    10    10     9    1
    11     9     1    1
    12     1     2    1
    13     2     3    1
    14     3     4    1
    15     4     5   am
    16     5     6    2
    17     5    24    1
    18    24    25    1
    19    25    26   ar
    20    26    27   ar
    21    27    28   ar
    22    28    31    1
    23    31    32   ar
    24    32    33   ar
    25    33    34   ar
    26    34    35   ar
    27    28    29   ar
    28    29    30   ar
    29     4     7    1
    30     7     8    1
    31    19    20   ar
    32    20    21    1
    33    21    22    1
    34    22    23    1
    35    16    12    1
    36     8     1    1
    37    23    21    1
    38    20    15   ar
    39    30    25   ar
    40    35    31   ar
@<TRIPOS>MOLECULE
*****
 35 40 0 0 0
SMALL
GASTEIGER

@<TRIPOS>ATOM
      1 N         141.7361  139.2779  161.3059 N.3     1  UNL1       -0.2695
      2 C         141.6523  138.9310  162.7628 C.3     1  UNL1        0.0939
      3 C         140.4386  139.3146  163.5565 C.3     1  UNL1        0.1107
      4 N         139.3089  140.0451  162.8933 N.am    1  UNL1       -0.2764
      5 C         138.0952  140.4288  163.6870 C.2     1  UNL1        0.2301
      6 O         136.9655  141.1593  163.0237 O.2     1  UNL1       -0.2745
      7 C         139.3927  140.3921  161.4364 C.3     1  UNL1        0.1107
      8 C         140.6064  140.0084  160.6427 C.3     1  UNL1        0.0939
      9 C         142.9498  138.8943  160.5122 C.3     1  UNL1        0.0769
     10 C         144.2498  139.6076  160.7378 C.3     1  UNL1        0.0433
     11 O         145.0456  143.9376  166.3280 O.2     1  UNL1       -0.2449
     12 C         144.5990  143.8836  164.8970 C.2     1  UNL1        0.3413
     13 O         144.0755  145.0363  164.0927 O.3     1  UNL1       -0.4404
     14 C         143.7505  144.5325  162.7177 C.3     1  UNL1        0.2352
     15 C         144.0732  143.0683  162.6723 C.ar    1  UNL1        0.0232
     16 C         144.5976  142.6673  164.0192 C.ar    1  UNL1        0.0748
     17 C         145.0061  141.2464  164.2724 C.ar    1  UNL1        0.0059
     18 C         144.8902  140.2265  163.1785 C.ar    1  UNL1       -0.0043
     19 C         144.3657  140.6275  161.8317 C.ar    1  UNL1       -0.0249
     20 C         143.9572  142.0484  161.5785 C.ar    1  UNL1       -0.0267
     21 C         143.4328  142.4494  160.2316 C.3     1  UNL1        0.0219
     22 C         142.3162  142.9655  159.3733 C.3     1  UNL1        0.0047
     23 C         143.6412  142.6278  158.7569 C.3     1  UNL1        0.0047
     24 C         138.0115  140.0818  165.1439 C.3     1  UNL1        0.1116
     25 C         138.9843  140.6823  166.1150 C.ar    1  UNL1       -0.0130
     26 C         139.5588  142.0435  165.8561 C.ar    1  UNL1       -0.0022
     27 C         140.5317  142.6440  166.8272 C.ar    1  UNL1        0.0190
     28 C         140.9299  141.8833  168.0571 C.ar    1  UNL1        0.0862
     29 C         140.3555  140.5221  168.3160 C.ar    1  UNL1        0.0190
     30 C         139.3826  139.9215  167.3450 C.ar    1  UNL1       -0.0022
     31 N         141.9028  142.4839  169.0282 N.ar    1  UNL1       -0.1886
     32 C         143.3834  142.2445  169.0548 C.ar    1  UNL1        0.2258
     33 N         143.9615  143.0419  170.1861 N.ar    1  UNL1       -0.1045
     34 N         142.8384  143.7741  170.8587 N.ar    1  UNL1       -0.0222
     35 N         141.5660  143.4292  170.1430 N.ar    1  UNL1       -0.0385
@<TRIPOS>BOND
     1    11    12    2
     2    12    13    1
     3    13    14    1
     4    14    15    1
     5    15    16   ar
     6    16    17   ar
     7    17    18   ar
     8    18    19   ar
     9    19    10    1
    10    10     9    1
    11     9     1    1
    12     1     2    1
    13     2     3    1
    14     3     4    1
    15     4     5   am
    16     5     6    2
    17     5    24    1
    18    24    25    1
    19    25    26   ar
    20    26    27   ar
    21    27    28   ar
    22    28    31    1
    23    31    32   ar
    24    32    33   ar
    25    33    34   ar
    26    34    35   ar
    27    28    29   ar
    28    29    30   ar
    29     4     7    1
    30     7     8    1
    31    19    20   ar
    32    20    21    1
    33    21    22    1
    34    22    23    1
    35    16    12    1
    36     8     1    1
    37    23    21    1
    38    20    15   ar
    39    30    25   ar
    40    35    31   ar
@<TRIPOS>MOLECULE
*****
 35 40 0 0 0
SMALL
GASTEIGER

@<TRIPOS>ATOM
      1 N         142.8741  139.7515  160.4242 N.3     1  UNL1       -0.2695
      2 C         143.3136  139.4087  161.8167 C.3     1  UNL1        0.0939
      3 C         142.3403  138.7993  162.7818 C.3     1  UNL1        0.1107
      4 N         140.9274  138.5328  162.3542 N.am    1  UNL1       -0.2764
      5 C         139.9541  137.9235  163.3192 C.2     1  UNL1        0.2301
      6 O         138.5412  137.6570  162.8916 O.2     1  UNL1       -0.2745
      7 C         140.4879  138.8757  160.9616 C.3     1  UNL1        0.1107
      8 C         141.4613  139.4851  159.9966 C.3     1  UNL1        0.0939
      9 C         143.8475  140.3609  159.4591 C.3     1  UNL1        0.0769
     10 C         144.2249  141.8069  159.5870 C.3     1  UNL1        0.0433
     11 O         139.1492  146.5773  161.0407 O.2     1  UNL1       -0.2449
     12 C         140.2784  145.7949  161.6429 C.2     1  UNL1        0.3413
     13 O         140.7223  145.8472  163.0748 O.3     1  UNL1       -0.4404
     14 C         141.8802  144.9073  163.2358 C.3     1  UNL1        0.2352
     15 C         142.1519  144.2741  161.9034 C.ar    1  UNL1        0.0232
     16 C         141.1619  144.8226  160.9190 C.ar    1  UNL1        0.0748
     17 C         141.1929  144.3659  159.4906 C.ar    1  UNL1        0.0059
     18 C         142.2140  143.3606  159.0466 C.ar    1  UNL1       -0.0043
     19 C         143.2039  142.8122  160.0310 C.ar    1  UNL1       -0.0249
     20 C         143.1729  143.2689  161.4594 C.ar    1  UNL1       -0.0267
     21 C         144.1628  142.7204  162.4439 C.3     1  UNL1        0.0219
     22 C         145.5183  142.1523  162.7436 C.3     1  UNL1        0.0047
     23 C         144.5220  142.3384  163.8492 C.3     1  UNL1        0.0047
     24 C         140.3937  137.5806  164.7118 C.3     1  UNL1        0.1116
     25 C         140.3063  138.6089  165.8003 C.ar    1  UNL1       -0.0130
     26 C         141.5488  139.2956  166.2849 C.ar    1  UNL1       -0.0022
     27 C         141.4614  140.3239  167.3734 C.ar    1  UNL1        0.0190
     28 C         140.1316  140.6655  167.9774 C.ar    1  UNL1        0.0862
     29 C         138.8891  139.9790  167.4930 C.ar    1  UNL1        0.0190
     30 C         138.9764  138.9506  166.4044 C.ar    1  UNL1       -0.0022
     31 N         140.0443  141.6939  169.0660 N.ar    1  UNL1       -0.1886
     32 C         140.4544  143.1325  168.9547 C.ar    1  UNL1        0.2258
     33 N         140.1952  143.7919  170.2768 N.ar    1  UNL1       -0.1045
     34 N         139.6249  142.7609  171.2052 N.ar    1  UNL1       -0.0222
     35 N         139.5317  141.4643  170.4568 N.ar    1  UNL1       -0.0385
@<TRIPOS>BOND
     1    11    12    2
     2    12    13    1
     3    13    14    1
     4    14    15    1
     5    15    16   ar
     6    16    17   ar
     7    17    18   ar
     8    18    19   ar
     9    19    10    1
    10    10     9    1
    11     9     1    1
    12     1     2    1
    13     2     3    1
    14     3     4    1
    15     4     5   am
    16     5     6    2
    17     5    24    1
    18    24    25    1
    19    25    26   ar
    20    26    27   ar
    21    27    28   ar
    22    28    31    1
    23    31    32   ar
    24    32    33   ar
    25    33    34   ar
    26    34    35   ar
    27    28    29   ar
    28    29    30   ar
    29     4     7    1
    30     7     8    1
    31    19    20   ar
    32    20    21    1
    33    21    22    1
    34    22    23    1
    35    16    12    1
    36     8     1    1
    37    23    21    1
    38    20    15   ar
    39    30    25   ar
    40    35    31   ar
@<TRIPOS>MOLECULE
*****
 35 40 0 0 0
SMALL
GASTEIGER

@<TRIPOS>ATOM
      1 N         142.3541  142.0531  159.8037 N.3     1  UNL1       -0.2695
      2 C         142.0031  140.8492  160.6265 C.3     1  UNL1        0.0939
      3 C         142.8836  140.4394  161.7698 C.3     1  UNL1        0.1107
      4 N         144.1150  141.2337  162.0901 N.am    1  UNL1       -0.2764
      5 C         144.9954  140.8240  163.2333 C.2     1  UNL1        0.2301
      6 O         146.2269  141.6183  163.5536 O.2     1  UNL1       -0.2745
      7 C         144.4659  142.4377  161.2672 C.3     1  UNL1        0.1107
      8 C         143.5855  142.8474  160.1240 C.3     1  UNL1        0.0939
      9 C         141.4736  142.4629  158.6605 C.3     1  UNL1        0.0769
     10 C         140.2935  143.3558  158.9052 C.3     1  UNL1        0.0433
     11 O         138.4784  145.1576  165.5454 O.2     1  UNL1       -0.2449
     12 C         138.2668  144.1306  164.4728 C.2     1  UNL1        0.3413
     13 O         137.3891  142.9184  164.5735 O.3     1  UNL1       -0.4404
     14 C         137.4757  142.1741  163.2741 C.3     1  UNL1        0.2352
     15 C         138.4069  142.9263  162.3702 C.ar    1  UNL1        0.0232
     16 C         138.8958  144.1355  163.1111 C.ar    1  UNL1        0.0748
     17 C         139.8507  145.0848  162.4500 C.ar    1  UNL1        0.0059
     18 C         140.3166  144.8249  161.0480 C.ar    1  UNL1       -0.0043
     19 C         139.8277  143.6158  160.3072 C.ar    1  UNL1       -0.0249
     20 C         138.8728  142.6664  160.9683 C.ar    1  UNL1       -0.0267
     21 C         138.3839  141.4573  160.2275 C.3     1  UNL1        0.0219
     22 C         138.0374  140.7769  158.9364 C.3     1  UNL1        0.0047
     23 C         137.8835  140.0432  160.2355 C.3     1  UNL1        0.0047
     24 C         144.6444  139.6199  164.0562 C.3     1  UNL1        0.1116
     25 C         143.8391  139.7785  165.3117 C.ar    1  UNL1       -0.0130
     26 C         143.6427  138.6084  166.2295 C.ar    1  UNL1       -0.0022
     27 C         142.8374  138.7670  167.4850 C.ar    1  UNL1        0.0190
     28 C         142.2285  140.0955  167.8227 C.ar    1  UNL1        0.0862
     29 C         142.4249  141.2656  166.9050 C.ar    1  UNL1        0.0190
     30 C         143.2302  141.1071  165.6494 C.ar    1  UNL1       -0.0022
     31 N         141.4232  140.2540  169.0783 N.ar    1  UNL1       -0.1886
     32 C         141.8749  140.9370  170.3351 C.ar    1  UNL1        0.2258
     33 N         140.7558  140.8625  171.3311 N.ar    1  UNL1       -0.1045
     34 N         139.6124  140.1334  170.6899 N.ar    1  UNL1       -0.0222
     35 N         140.0249  139.7574  169.2976 N.ar    1  UNL1       -0.0385
@<TRIPOS>BOND
     1    11    12    2
     2    12    13    1
     3    13    14    1
     4    14    15    1
     5    15    16   ar
     6    16    17   ar
     7    17    18   ar
     8    18    19   ar
     9    19    10    1
    10    10     9    1
    11     9     1    1
    12     1     2    1
    13     2     3    1
    14     3     4    1
    15     4     5   am
    16     5     6    2
    17     5    24    1
    18    24    25    1
    19    25    26   ar
    20    26    27   ar
    21    27    28   ar
    22    28    31    1
    23    31    32   ar
    24    32    33   ar
    25    33    34   ar
    26    34    35   ar
    27    28    29   ar
    28    29    30   ar
    29     4     7    1
    30     7     8    1
    31    19    20   ar
    32    20    21    1
    33    21    22    1
    34    22    23    1
    35    16    12    1
    36     8     1    1
    37    23    21    1
    38    20    15   ar
    39    30    25   ar
    40    35    31   ar
@<TRIPOS>MOLECULE
*****
 35 40 0 0 0
SMALL
GASTEIGER

@<TRIPOS>ATOM
      1 N         141.6486  139.2224  160.4125 N.3     1  UNL1       -0.2695
      2 C         141.3228  138.4476  161.6548 C.3     1  UNL1        0.0939
      3 C         142.1980  138.5709  162.8668 C.3     1  UNL1        0.1107
      4 N         143.3991  139.4689  162.8363 N.am    1  UNL1       -0.2764
      5 C         144.2743  139.5922  164.0482 C.2     1  UNL1        0.2301
      6 O         145.4754  140.4902  164.0177 O.2     1  UNL1       -0.2745
      7 C         143.7249  140.2437  161.5939 C.3     1  UNL1        0.1107
      8 C         142.8497  140.1204  160.3820 C.3     1  UNL1        0.0939
      9 C         140.7734  139.0991  159.2004 C.3     1  UNL1        0.0769
     10 C         139.6122  140.0304  159.0161 C.3     1  UNL1        0.0433
     11 O         139.8900  146.5876  161.7655 O.2     1  UNL1       -0.2449
     12 C         139.4063  145.1910  162.0213 C.2     1  UNL1        0.3413
     13 O         138.6714  144.7222  163.2420 O.3     1  UNL1       -0.4404
     14 C         138.3834  143.2594  163.0766 C.3     1  UNL1        0.2352
     15 C         138.9404  142.8241  161.7536 C.ar    1  UNL1        0.0232
     16 C         139.5726  144.0179  161.1014 C.ar    1  UNL1        0.0748
     17 C         140.2179  143.8826  159.7542 C.ar    1  UNL1        0.0059
     18 C         140.2311  142.5533  159.0591 C.ar    1  UNL1       -0.0043
     19 C         139.5990  141.3597  159.7112 C.ar    1  UNL1       -0.0249
     20 C         138.9536  141.4950  161.0584 C.ar    1  UNL1       -0.0267
     21 C         138.3215  140.3012  161.7106 C.3     1  UNL1        0.0219
     22 C         137.5887  138.9970  161.6008 C.3     1  UNL1        0.0047
     23 C         137.9593  139.5378  162.9499 C.3     1  UNL1        0.0047
     24 C         143.9484  138.8173  165.2906 C.3     1  UNL1        0.1116
     25 C         143.2605  139.4952  166.4383 C.ar    1  UNL1       -0.0130
     26 C         143.0380  138.7537  167.7231 C.ar    1  UNL1       -0.0022
     27 C         142.3500  139.4315  168.8708 C.ar    1  UNL1        0.0190
     28 C         141.8846  140.8509  168.7338 C.ar    1  UNL1        0.0862
     29 C         142.1071  141.5925  167.4491 C.ar    1  UNL1        0.0190
     30 C         142.7950  140.9146  166.3013 C.ar    1  UNL1       -0.0022
     31 N         141.1967  141.5287  169.8816 N.ar    1  UNL1       -0.1886
     32 C         140.1045  142.5514  169.7752 C.ar    1  UNL1        0.2258
     33 N         139.7129  142.9576  171.1651 N.ar    1  UNL1       -0.1045
     34 N         140.5631  142.1860  172.1304 N.ar    1  UNL1       -0.0222
     35 N         141.4801  141.3030  171.3371 N.ar    1  UNL1       -0.0385
@<TRIPOS>BOND
     1    11    12    2
     2    12    13    1
     3    13    14    1
     4    14    15    1
     5    15    16   ar
     6    16    17   ar
     7    17    18   ar
     8    18    19   ar
     9    19    10    1
    10    10     9    1
    11     9     1    1
    12     1     2    1
    13     2     3    1
    14     3     4    1
    15     4     5   am
    16     5     6    2
    17     5    24    1
    18    24    25    1
    19    25    26   ar
    20    26    27   ar
    21    27    28   ar
    22    28    31    1
    23    31    32   ar
    24    32    33   ar
    25    33    34   ar
    26    34    35   ar
    27    28    29   ar
    28    29    30   ar
    29     4     7    1
    30     7     8    1
    31    19    20   ar
    32    20    21    1
    33    21    22    1
    34    22    23    1
    35    16    12    1
    36     8     1    1
    37    23    21    1
    38    20    15   ar
    39    30    25   ar
    40    35    31   ar
@<TRIPOS>MOLECULE
*****
 35 40 0 0 0
SMALL
GASTEIGER

@<TRIPOS>ATOM
      1 N         138.4695  141.6119  162.1211 N.3     1  UNL1       -0.2695
      2 C         138.2365  142.0625  163.5327 C.3     1  UNL1        0.0939
      3 C         138.2643  141.0650  164.6527 C.3     1  UNL1        0.1107
      4 N         138.5250  139.6169  164.3610 N.am    1  UNL1       -0.2764
      5 C         138.5528  138.6195  165.4809 C.2     1  UNL1        0.2301
      6 O         138.8136  137.1714  165.1892 O.2     1  UNL1       -0.2745
      7 C         138.7581  139.1664  162.9494 C.3     1  UNL1        0.1107
      8 C         138.7303  140.1638  161.8294 C.3     1  UNL1        0.0939
      9 C         138.4418  142.6094  161.0011 C.3     1  UNL1        0.0769
     10 C         139.6129  143.5197  160.7783 C.3     1  UNL1        0.0433
     11 O         144.6526  144.0386  165.7748 O.2     1  UNL1       -0.2449
     12 C         144.2914  143.3510  164.4916 C.2     1  UNL1        0.3413
     13 O         145.1308  142.3419  163.7654 O.3     1  UNL1       -0.4404
     14 C         144.3856  141.9190  162.5342 C.3     1  UNL1        0.2352
     15 C         143.0857  142.6667  162.4994 C.ar    1  UNL1        0.0232
     16 C         143.0275  143.5517  163.7091 C.ar    1  UNL1        0.0748
     17 C         141.8312  144.4260  163.9419 C.ar    1  UNL1        0.0059
     18 C         140.6929  144.4153  162.9649 C.ar    1  UNL1       -0.0043
     19 C         140.7511  143.5304  161.7553 C.ar    1  UNL1       -0.0249
     20 C         141.9475  142.6560  161.5225 C.ar    1  UNL1       -0.0267
     21 C         142.0057  141.7710  160.3128 C.3     1  UNL1        0.0219
     22 C         141.6160  140.5046  159.6097 C.3     1  UNL1        0.0047
     23 C         142.4962  141.5047  158.9205 C.3     1  UNL1        0.0047
     24 C         138.3198  139.0701  166.8925 C.3     1  UNL1        0.1116
     25 C         139.3516  139.9029  167.5939 C.ar    1  UNL1       -0.0130
     26 C         140.5846  140.3429  166.8616 C.ar    1  UNL1       -0.0022
     27 C         141.6163  141.1756  167.5630 C.ar    1  UNL1        0.0190
     28 C         141.4151  141.5684  168.9966 C.ar    1  UNL1        0.0862
     29 C         140.1823  141.1285  169.7289 C.ar    1  UNL1        0.0190
     30 C         139.1504  140.2957  169.0276 C.ar    1  UNL1       -0.0022
     31 N         142.4470  142.4012  169.6979 N.ar    1  UNL1       -0.1886
     32 C         143.9325  142.3041  169.5134 C.ar    1  UNL1        0.2258
     33 N         144.5781  143.3201  170.4082 N.ar    1  UNL1       -0.1045
     34 N         143.4917  144.0452  171.1458 N.ar    1  UNL1       -0.0222
     35 N         142.1747  143.4772  170.7068 N.ar    1  UNL1       -0.0385
@<TRIPOS>BOND
     1    11    12    2
     2    12    13    1
     3    13    14    1
     4    14    15    1
     5    15    16   ar
     6    16    17   ar
     7    17    18   ar
     8    18    19   ar
     9    19    10    1
    10    10     9    1
    11     9     1    1
    12     1     2    1
    13     2     3    1
    14     3     4    1
    15     4     5   am
    16     5     6    2
    17     5    24    1
    18    24    25    1
    19    25    26   ar
    20    26    27   ar
    21    27    28   ar
    22    28    31    1
    23    31    32   ar
    24    32    33   ar
    25    33    34   ar
    26    34    35   ar
    27    28    29   ar
    28    29    30   ar
    29     4     7    1
    30     7     8    1
    31    19    20   ar
    32    20    21    1
    33    21    22    1
    34    22    23    1
    35    16    12    1
    36     8     1    1
    37    23    21    1
    38    20    15   ar
    39    30    25   ar
    40    35    31   ar
@<TRIPOS>MOLECULE
*****
 35 40 0 0 0
SMALL
GASTEIGER

@<TRIPOS>ATOM
      1 N         144.6598  141.8781  163.1884 N.3     1  UNL1       -0.2695
      2 C         144.0223  140.6303  163.7236 C.3     1  UNL1        0.0939
      3 C         143.4028  139.6410  162.7815 C.3     1  UNL1        0.1107
      4 N         143.4209  139.8996  161.3041 N.am    1  UNL1       -0.2764
      5 C         142.8015  138.9103  160.3619 C.2     1  UNL1        0.2301
      6 O         142.8196  139.1689  158.8845 O.2     1  UNL1       -0.2745
      7 C         144.0585  141.1474  160.7688 C.3     1  UNL1        0.1107
      8 C         144.6779  142.1366  161.7110 C.3     1  UNL1        0.0939
      9 C         145.2793  142.8674  164.1305 C.3     1  UNL1        0.0769
     10 C         144.4151  143.8582  164.8525 C.3     1  UNL1        0.0433
     11 O         137.7958  145.0566  162.5326 O.2     1  UNL1       -0.2449
     12 C         138.6014  144.2944  163.5426 C.2     1  UNL1        0.3413
     13 O         138.0568  143.3550  164.5775 O.3     1  UNL1       -0.4404
     14 C         139.2118  142.8178  165.3696 C.3     1  UNL1        0.2352
     15 C         140.4702  143.4253  164.8243 C.ar    1  UNL1        0.0232
     16 C         140.0929  144.3379  163.6952 C.ar    1  UNL1        0.0748
     17 C         141.1563  145.0906  162.9518 C.ar    1  UNL1        0.0059
     18 C         142.5971  144.9307  163.3376 C.ar    1  UNL1       -0.0043
     19 C         142.9743  144.0181  164.4667 C.ar    1  UNL1       -0.0249
     20 C         141.9109  143.2655  165.2100 C.ar    1  UNL1       -0.0267
     21 C         142.2883  142.3529  166.3391 C.3     1  UNL1        0.0219
     22 C         142.8742  142.1497  167.7049 C.3     1  UNL1        0.0047
     23 C         142.3558  140.9754  166.9290 C.3     1  UNL1        0.0047
     24 C         142.1639  137.6625  160.8973 C.3     1  UNL1        0.1116
     25 C         141.2798  137.7318  162.1070 C.ar    1  UNL1       -0.0130
     26 C         141.8048  137.3034  163.4452 C.ar    1  UNL1       -0.0022
     27 C         140.9207  137.3727  164.6550 C.ar    1  UNL1        0.0190
     28 C         139.5115  137.8703  164.5265 C.ar    1  UNL1        0.0862
     29 C         138.9864  138.2987  163.1883 C.ar    1  UNL1        0.0190
     30 C         139.8705  138.2294  161.9785 C.ar    1  UNL1       -0.0022
     31 N         138.6274  137.9396  165.7363 N.ar    1  UNL1       -0.1886
     32 C         138.5340  139.0891  166.6954 C.ar    1  UNL1        0.2258
     33 N         137.5304  138.7315  167.7513 N.ar    1  UNL1       -0.1045
     34 N         137.0034  137.3610  167.4447 N.ar    1  UNL1       -0.0222
     35 N         137.6814  136.8716  166.1994 N.ar    1  UNL1       -0.0385
@<TRIPOS>BOND
     1    11    12    2
     2    12    13    1
     3    13    14    1
     4    14    15    1
     5    15    16   ar
     6    16    17   ar
     7    17    18   ar
     8    18    19   ar
     9    19    10    1
    10    10     9    1
    11     9     1    1
    12     1     2    1
    13     2     3    1
    14     3     4    1
    15     4     5   am
    16     5     6    2
    17     5    24    1
    18    24    25    1
    19    25    26   ar
    20    26    27   ar
    21    27    28   ar
    22    28    31    1
    23    31    32   ar
    24    32    33   ar
    25    33    34   ar
    26    34    35   ar
    27    28    29   ar
    28    29    30   ar
    29     4     7    1
    30     7     8    1
    31    19    20   ar
    32    20    21    1
    33    21    22    1
    34    22    23    1
    35    16    12    1
    36     8     1    1
    37    23    21    1
    38    20    15   ar
    39    30    25   ar
    40    35    31   ar
