@<TRIPOS>MOLECULE
*****
 25 27 0 0 0
SMALL
GASTEIGER

@<TRIPOS>ATOM
      1 C         142.9853  142.6799  164.9362 C.3     1  UNL1        0.0196
      2 C         142.1473  141.8016  164.0551 C.3     1  UNL1        0.0017
      3 C         141.8030  142.2448  162.6641 C.3     1  UNL1        0.0002
      4 C         142.2966  143.5662  162.1541 C.3     1  UNL1        0.0037
      5 C         143.1346  144.4445  163.0352 C.3     1  UNL1        0.0002
      6 C         143.4789  144.0013  164.4262 C.3     1  UNL1        0.0017
      7 C         143.3296  142.2367  166.3273 C.3     1  UNL1        0.0896
      8 O         144.1176  142.7636  169.1736 O.2     1  UNL1       -0.2704
      9 C         142.6782  142.5247  168.8258 C.2     1  UNL1        0.2454
     10 N         142.2842  142.2613  167.4026 N.am    1  UNL1       -0.3010
     11 H         141.3394  142.1045  167.1743 H       1  UNL1        0.1497
     12 C         141.6327  142.5493  169.9012 C.2     1  UNL1        0.0782
     13 C         140.3533  143.3316  169.8693 C.2     1  UNL1        0.1240
     14 N         139.6130  143.0617  171.1456 N.2     1  UNL1       -0.1509
     15 N         140.4349  142.1125  171.9664 N.2     1  UNL1       -0.1693
     16 C         141.6831  141.7958  171.1972 C.3     1  UNL1        0.1816
     17 C         141.9523  144.0094  160.7630 C.3     1  UNL1        0.0473
     18 C         140.9948  145.1447  160.5529 C.3     1  UNL1        0.2054
     19 O         139.5263  144.9392  160.7797 O.3     1  UNL1       -0.4755
     20 C         139.0364  144.4219  162.0997 C.ar    1  UNL1        0.1386
     21 C         139.4200  145.1231  163.3691 C.ar    1  UNL1        0.0369
     22 C         138.9301  144.6059  164.6891 C.ar    1  UNL1        0.0031
     23 C         138.0566  143.3874  164.7398 C.ar    1  UNL1        0.0002
     24 C         137.6731  142.6863  163.4704 C.ar    1  UNL1        0.0031
     25 C         138.1630  143.2036  162.1503 C.ar    1  UNL1        0.0369
@<TRIPOS>BOND
     1     8     9    2
     2     9    10   am
     3    10     7    1
     4     1     7    1
     5     1     2    1
     6     2     3    1
     7     3     4    1
     8     4    17    1
     9    17    18    1
    10    18    19    1
    11    19    20    1
    12    20    21   ar
    13    21    22   ar
    14    22    23   ar
    15    23    24   ar
    16    24    25   ar
    17     4     5    1
    18     5     6    1
    19     9    12    1
    20    12    13    2
    21    13    14    1
    22    14    15    2
    23    15    16    1
    24     6     1    1
    25    16    12    1
    26    25    20   ar
    27    10    11    1
@<TRIPOS>MOLECULE
*****
 25 27 0 0 0
SMALL
GASTEIGER

@<TRIPOS>ATOM
      1 C         143.0739  141.0674  165.2492 C.3     1  UNL1        0.0196
      2 C         142.8611  141.5711  163.8525 C.3     1  UNL1        0.0017
      3 C         142.6783  140.5994  162.7246 C.3     1  UNL1        0.0002
      4 C         142.7083  139.1239  162.9934 C.3     1  UNL1        0.0037
      5 C         142.9212  138.6202  164.3901 C.3     1  UNL1        0.0002
      6 C         143.1040  139.5920  165.5180 C.3     1  UNL1        0.0017
      7 C         143.2568  142.0391  166.3773 C.3     1  UNL1        0.0896
      8 O         144.0342  142.7436  169.1879 O.2     1  UNL1       -0.2704
      9 C         142.5922  142.5160  168.8433 C.2     1  UNL1        0.2454
     10 N         142.2035  142.1638  167.4379 N.am    1  UNL1       -0.3010
     11 H         141.2570  142.0144  167.2117 H       1  UNL1        0.1497
     12 C         141.5389  142.6407  169.9039 C.2     1  UNL1        0.0782
     13 C         141.4918  141.8765  171.1938 C.2     1  UNL1        0.1240
     14 N         140.2716  142.3149  171.9480 N.2     1  UNL1       -0.1509
     15 N         139.5645  143.3501  171.1242 N.2     1  UNL1       -0.1693
     16 C         140.3478  143.5514  169.8609 C.3     1  UNL1        0.1816
     17 C         142.5255  138.1522  161.8653 C.3     1  UNL1        0.0473
     18 C         141.1882  138.0193  161.1992 C.3     1  UNL1        0.2054
     19 O         140.0230  137.4607  161.9611 O.3     1  UNL1       -0.4755
     20 C         139.4353  138.2329  163.1050 C.ar    1  UNL1        0.1386
     21 C         139.3109  137.5935  164.4562 C.ar    1  UNL1        0.0369
     22 C         138.7233  138.3656  165.6000 C.ar    1  UNL1        0.0031
     23 C         138.2598  139.7771  165.3927 C.ar    1  UNL1        0.0002
     24 C         138.3842  140.4165  164.0415 C.ar    1  UNL1        0.0031
     25 C         138.9719  139.6443  162.8976 C.ar    1  UNL1        0.0369
@<TRIPOS>BOND
     1     8     9    2
     2     9    10   am
     3    10     7    1
     4     1     7    1
     5     1     2    1
     6     2     3    1
     7     3     4    1
     8     4    17    1
     9    17    18    1
    10    18    19    1
    11    19    20    1
    12    20    21   ar
    13    21    22   ar
    14    22    23   ar
    15    23    24   ar
    16    24    25   ar
    17     4     5    1
    18     5     6    1
    19     9    12    1
    20    12    13    2
    21    13    14    1
    22    14    15    2
    23    15    16    1
    24     6     1    1
    25    16    12    1
    26    25    20   ar
    27    10    11    1
@<TRIPOS>MOLECULE
*****
 25 27 0 0 0
SMALL
GASTEIGER

@<TRIPOS>ATOM
      1 C         138.4768  139.0237  165.8093 C.3     1  UNL1        0.0196
      2 C         138.8577  137.7245  165.1635 C.3     1  UNL1        0.0017
      3 C         138.8613  137.6029  163.6685 C.3     1  UNL1        0.0002
      4 C         138.4840  138.7804  162.8193 C.3     1  UNL1        0.0037
      5 C         138.1031  140.0795  163.4651 C.3     1  UNL1        0.0002
      6 C         138.0995  140.2012  164.9601 C.3     1  UNL1        0.0017
      7 C         138.4732  139.1454  167.3044 C.3     1  UNL1        0.0896
      8 O         138.0619  139.8700  170.1864 O.2     1  UNL1       -0.2704
      9 C         139.2135  140.4542  169.4232 C.2     1  UNL1        0.2454
     10 N         139.4191  140.0919  167.9821 N.am    1  UNL1       -0.3010
     11 H         140.1749  140.4753  167.4812 H       1  UNL1        0.1497
     12 C         140.1594  141.4007  170.1009 C.2     1  UNL1        0.0782
     13 C         141.0683  141.0689  171.2470 C.2     1  UNL1        0.1240
     14 N         141.8331  142.3083  171.6060 N.2     1  UNL1       -0.1509
     15 N         141.3968  143.4062  170.6816 N.2     1  UNL1       -0.1693
     16 C         140.3624  142.8453  169.7515 C.3     1  UNL1        0.1816
     17 C         138.4875  138.6587  161.3242 C.3     1  UNL1        0.0473
     18 C         139.7656  138.3567  160.5994 C.3     1  UNL1        0.2054
     19 O         140.9474  139.2680  160.7514 O.3     1  UNL1       -0.4755
     20 C         141.5647  139.4766  162.1024 C.ar    1  UNL1        0.1386
     21 C         141.5306  140.8334  162.7412 C.ar    1  UNL1        0.0369
     22 C         142.1480  141.0420  164.0922 C.ar    1  UNL1        0.0031
     23 C         142.7994  139.8938  164.8045 C.ar    1  UNL1        0.0002
     24 C         142.8335  138.5371  164.1657 C.ar    1  UNL1        0.0031
     25 C         142.2161  138.3285  162.8146 C.ar    1  UNL1        0.0369
@<TRIPOS>BOND
     1     8     9    2
     2     9    10   am
     3    10     7    1
     4     1     7    1
     5     1     2    1
     6     2     3    1
     7     3     4    1
     8     4    17    1
     9    17    18    1
    10    18    19    1
    11    19    20    1
    12    20    21   ar
    13    21    22   ar
    14    22    23   ar
    15    23    24   ar
    16    24    25   ar
    17     4     5    1
    18     5     6    1
    19     9    12    1
    20    12    13    2
    21    13    14    1
    22    14    15    2
    23    15    16    1
    24     6     1    1
    25    16    12    1
    26    25    20   ar
    27    10    11    1
@<TRIPOS>MOLECULE
*****
 25 27 0 0 0
SMALL
GASTEIGER

@<TRIPOS>ATOM
      1 C         139.8535  139.6638  164.8673 C.3     1  UNL1        0.0196
      2 C         140.6672  139.7231  163.6086 C.3     1  UNL1        0.0017
      3 C         140.0509  140.2351  162.3405 C.3     1  UNL1        0.0002
      4 C         138.6209  140.6877  162.3311 C.3     1  UNL1        0.0037
      5 C         137.8071  140.6285  163.5898 C.3     1  UNL1        0.0002
      6 C         138.4234  140.1165  164.8578 C.3     1  UNL1        0.0017
      7 C         140.4697  139.1518  166.1354 C.3     1  UNL1        0.0896
      8 O         138.5910  139.3816  168.4630 O.2     1  UNL1       -0.2704
      9 C         139.8374  140.2151  168.4201 C.2     1  UNL1        0.2454
     10 N         140.7768  140.1002  167.2562 N.am    1  UNL1       -0.3010
     11 H         141.5948  140.6473  167.2280 H       1  UNL1        0.1497
     12 C         140.1444  141.1635  169.5409 C.2     1  UNL1        0.0782
     13 C         140.4413  140.7833  170.9612 C.2     1  UNL1        0.1240
     14 N         140.6889  142.0434  171.7363 N.2     1  UNL1       -0.1509
     15 N         140.5449  143.2025  170.7950 N.2     1  UNL1       -0.1693
     16 C         140.2085  142.6587  169.4382 C.3     1  UNL1        0.1816
     17 C         138.0046  141.1997  161.0630 C.3     1  UNL1        0.0473
     18 C         138.6176  142.3681  160.3496 C.3     1  UNL1        0.2054
     19 O         138.5571  143.7364  160.9616 O.3     1  UNL1       -0.4755
     20 C         138.8240  143.9151  162.4267 C.ar    1  UNL1        0.1386
     21 C         140.2252  143.8112  162.9519 C.ar    1  UNL1        0.0369
     22 C         140.4922  143.9900  164.4171 C.ar    1  UNL1        0.0031
     23 C         139.3579  144.2727  165.3571 C.ar    1  UNL1        0.0002
     24 C         137.9567  144.3766  164.8319 C.ar    1  UNL1        0.0031
     25 C         137.6898  144.1978  163.3666 C.ar    1  UNL1        0.0369
@<TRIPOS>BOND
     1     8     9    2
     2     9    10   am
     3    10     7    1
     4     1     7    1
     5     1     2    1
     6     2     3    1
     7     3     4    1
     8     4    17    1
     9    17    18    1
    10    18    19    1
    11    19    20    1
    12    20    21   ar
    13    21    22   ar
    14    22    23   ar
    15    23    24   ar
    16    24    25   ar
    17     4     5    1
    18     5     6    1
    19     9    12    1
    20    12    13    2
    21    13    14    1
    22    14    15    2
    23    15    16    1
    24     6     1    1
    25    16    12    1
    26    25    20   ar
    27    10    11    1
@<TRIPOS>MOLECULE
*****
 25 27 0 0 0
SMALL
GASTEIGER

@<TRIPOS>ATOM
      1 C         142.9111  142.7358  164.2982 C.3     1  UNL1        0.0196
      2 C         142.9678  144.2343  164.3299 C.3     1  UNL1        0.0017
      3 C         142.3000  145.0331  163.2501 C.3     1  UNL1        0.0002
      4 C         141.5756  144.3333  162.1386 C.3     1  UNL1        0.0037
      5 C         141.5189  142.8347  162.1069 C.3     1  UNL1        0.0002
      6 C         142.1866  142.0360  163.1867 C.3     1  UNL1        0.0017
      7 C         143.5789  141.9369  165.3780 C.3     1  UNL1        0.0896
      8 O         141.0192  141.1412  166.7252 O.2     1  UNL1       -0.2704
      9 C         142.0702  141.8872  167.4926 C.2     1  UNL1        0.2454
     10 N         143.3501  142.2851  166.8190 N.am    1  UNL1       -0.3010
     11 H         144.0399  142.7747  167.3226 H       1  UNL1        0.1497
     12 C         141.8413  142.2354  168.9335 C.2     1  UNL1        0.0782
     13 C         140.5257  142.1925  169.6527 C.2     1  UNL1        0.1240
     14 N         140.7592  142.6182  171.0720 N.2     1  UNL1       -0.1509
     15 N         142.2192  142.9242  171.2299 N.2     1  UNL1       -0.1693
     16 C         142.8879  142.6876  169.9083 C.3     1  UNL1        0.1816
     17 C         140.9078  145.1321  161.0588 C.3     1  UNL1        0.0473
     18 C         139.8879  146.1721  161.4169 C.3     1  UNL1        0.2054
     19 O         138.5486  145.7569  161.9499 O.3     1  UNL1       -0.4755
     20 C         138.4416  144.5829  162.8773 C.ar    1  UNL1        0.1386
     21 C         137.8745  143.2854  162.3824 C.ar    1  UNL1        0.0369
     22 C         137.7675  142.1114  163.3098 C.ar    1  UNL1        0.0031
     23 C         138.2276  142.2348  164.7322 C.ar    1  UNL1        0.0002
     24 C         138.7947  143.5323  165.2271 C.ar    1  UNL1        0.0031
     25 C         138.9017  144.7063  164.2997 C.ar    1  UNL1        0.0369
@<TRIPOS>BOND
     1     8     9    2
     2     9    10   am
     3    10     7    1
     4     1     7    1
     5     1     2    1
     6     2     3    1
     7     3     4    1
     8     4    17    1
     9    17    18    1
    10    18    19    1
    11    19    20    1
    12    20    21   ar
    13    21    22   ar
    14    22    23   ar
    15    23    24   ar
    16    24    25   ar
    17     4     5    1
    18     5     6    1
    19     9    12    1
    20    12    13    2
    21    13    14    1
    22    14    15    2
    23    15    16    1
    24     6     1    1
    25    16    12    1
    26    25    20   ar
    27    10    11    1
@<TRIPOS>MOLECULE
*****
 25 27 0 0 0
SMALL
GASTEIGER

@<TRIPOS>ATOM
      1 C         139.4440  138.9035  165.2616 C.3     1  UNL1        0.0196
      2 C         139.7219  139.9124  164.1870 C.3     1  UNL1        0.0017
      3 C         140.7585  139.6277  163.1410 C.3     1  UNL1        0.0002
      4 C         141.5173  138.3341  163.1696 C.3     1  UNL1        0.0037
      5 C         141.2394  137.3252  164.2442 C.3     1  UNL1        0.0002
      6 C         140.2027  137.6099  165.2902 C.3     1  UNL1        0.0017
      7 C         138.4073  139.1882  166.3078 C.3     1  UNL1        0.0896
      8 O         139.8569  141.7236  166.9939 O.2     1  UNL1       -0.2704
      9 C         139.5489  140.7218  168.0670 C.2     1  UNL1        0.2454
     10 N         138.8241  139.4541  167.7239 N.am    1  UNL1       -0.3010
     11 H         138.6220  138.7966  168.4282 H       1  UNL1        0.1497
     12 C         139.9657  140.9877  169.4831 C.2     1  UNL1        0.0782
     13 C         140.4235  139.9600  170.4752 C.2     1  UNL1        0.1240
     14 N         140.7387  140.6650  171.7611 N.2     1  UNL1       -0.1509
     15 N         140.4757  142.1286  171.5638 N.2     1  UNL1       -0.1693
     16 C         139.9980  142.3280  170.1559 C.3     1  UNL1        0.1816
     17 C         142.5540  138.0494  162.1235 C.3     1  UNL1        0.0473
     18 C         143.8894  138.7295  162.1864 C.3     1  UNL1        0.2054
     19 O         144.5404  138.9827  163.5139 O.3     1  UNL1       -0.4755
     20 C         144.3559  140.3038  164.1999 C.ar    1  UNL1        0.1386
     21 C         145.1211  141.5057  163.7309 C.ar    1  UNL1        0.0369
     22 C         144.9366  142.8268  164.4169 C.ar    1  UNL1        0.0031
     23 C         143.9870  142.9460  165.5719 C.ar    1  UNL1        0.0002
     24 C         143.2218  141.7441  166.0409 C.ar    1  UNL1        0.0031
     25 C         143.4063  140.4230  165.3548 C.ar    1  UNL1        0.0369
@<TRIPOS>BOND
     1     8     9    2
     2     9    10   am
     3    10     7    1
     4     1     7    1
     5     1     2    1
     6     2     3    1
     7     3     4    1
     8     4    17    1
     9    17    18    1
    10    18    19    1
    11    19    20    1
    12    20    21   ar
    13    21    22   ar
    14    22    23   ar
    15    23    24   ar
    16    24    25   ar
    17     4     5    1
    18     5     6    1
    19     9    12    1
    20    12    13    2
    21    13    14    1
    22    14    15    2
    23    15    16    1
    24     6     1    1
    25    16    12    1
    26    25    20   ar
    27    10    11    1
@<TRIPOS>MOLECULE
*****
 25 27 0 0 0
SMALL
GASTEIGER

@<TRIPOS>ATOM
      1 C         139.8705  142.1655  164.9256 C.3     1  UNL1        0.0196
      2 C         138.9238  141.1033  165.4002 C.3     1  UNL1        0.0017
      3 C         138.5165  139.9944  164.4758 C.3     1  UNL1        0.0002
      4 C         139.0560  139.9478  163.0770 C.3     1  UNL1        0.0037
      5 C         140.0027  141.0101  162.6024 C.3     1  UNL1        0.0002
      6 C         140.4100  142.1189  163.5268 C.3     1  UNL1        0.0017
      7 C         140.2779  143.2745  165.8500 C.3     1  UNL1        0.0896
      8 O         142.4665  141.7580  167.2322 O.2     1  UNL1       -0.2704
      9 C         141.3207  142.3118  168.0262 C.2     1  UNL1        0.2454
     10 N         140.2263  143.0701  167.3351 N.am    1  UNL1       -0.3010
     11 H         139.4743  143.4335  167.8562 H       1  UNL1        0.1497
     12 C         141.2691  142.1073  169.5113 C.2     1  UNL1        0.0782
     13 C         140.2664  141.2734  170.2522 C.2     1  UNL1        0.1240
     14 N         140.5888  141.3515  171.7150 N.2     1  UNL1       -0.1509
     15 N         141.7909  142.2339  171.8783 N.2     1  UNL1       -0.1693
     16 C         142.2113  142.7010  170.5163 C.3     1  UNL1        0.1816
     17 C         138.6487  138.8388  162.1526 C.3     1  UNL1        0.0473
     18 C         139.6864  137.9169  161.5843 C.3     1  UNL1        0.2054
     19 O         140.5496  137.1026  162.5019 O.3     1  UNL1       -0.4755
     20 C         141.6296  137.7679  163.3024 C.ar    1  UNL1        0.1386
     21 C         142.7789  138.4328  162.6045 C.ar    1  UNL1        0.0369
     22 C         143.8589  139.0981  163.4049 C.ar    1  UNL1        0.0031
     23 C         143.7898  139.0985  164.9034 C.ar    1  UNL1        0.0002
     24 C         142.6405  138.4336  165.6013 C.ar    1  UNL1        0.0031
     25 C         141.5604  137.7683  164.8008 C.ar    1  UNL1        0.0369
@<TRIPOS>BOND
     1     8     9    2
     2     9    10   am
     3    10     7    1
     4     1     7    1
     5     1     2    1
     6     2     3    1
     7     3     4    1
     8     4    17    1
     9    17    18    1
    10    18    19    1
    11    19    20    1
    12    20    21   ar
    13    21    22   ar
    14    22    23   ar
    15    23    24   ar
    16    24    25   ar
    17     4     5    1
    18     5     6    1
    19     9    12    1
    20    12    13    2
    21    13    14    1
    22    14    15    2
    23    15    16    1
    24     6     1    1
    25    16    12    1
    26    25    20   ar
    27    10    11    1
@<TRIPOS>MOLECULE
*****
 25 27 0 0 0
SMALL
GASTEIGER

@<TRIPOS>ATOM
      1 C         141.2689  138.8720  165.0404 C.3     1  UNL1        0.0196
      2 C         140.2935  137.7460  164.8656 C.3     1  UNL1        0.0017
      3 C         139.6288  137.5288  163.5386 C.3     1  UNL1        0.0002
      4 C         139.9395  138.4377  162.3864 C.3     1  UNL1        0.0037
      5 C         140.9149  139.5637  162.5613 C.3     1  UNL1        0.0002
      6 C         141.5796  139.7809  163.8883 C.3     1  UNL1        0.0017
      7 C         141.9336  139.0893  166.3675 C.3     1  UNL1        0.0896
      8 O         142.9208  139.0738  169.2004 O.2     1  UNL1       -0.2704
      9 C         141.7878  139.9741  168.8059 C.2     1  UNL1        0.2454
     10 N         141.2941  139.9818  167.3894 N.am    1  UNL1       -0.3010
     11 H         140.5504  140.5727  167.1305 H       1  UNL1        0.1497
     12 C         141.1483  140.8667  169.8279 C.2     1  UNL1        0.0782
     13 C         141.6082  141.0577  171.2428 C.2     1  UNL1        0.1240
     14 N         140.6808  142.0340  171.9037 N.2     1  UNL1       -0.1509
     15 N         139.6478  142.4463  170.8973 N.2     1  UNL1       -0.1693
     16 C         139.9367  141.7248  169.6144 C.3     1  UNL1        0.1816
     17 C         139.2748  138.2204  161.0593 C.3     1  UNL1        0.0473
     18 C         138.6128  139.3676  160.3554 C.3     1  UNL1        0.2054
     19 O         137.4549  140.0735  160.9966 O.3     1  UNL1       -0.4755
     20 C         137.7018  141.1668  161.9934 C.ar    1  UNL1        0.1386
     21 C         138.0468  142.5482  161.5215 C.ar    1  UNL1        0.0369
     22 C         138.2937  143.6415  162.5183 C.ar    1  UNL1        0.0031
     23 C         138.1956  143.3535  163.9872 C.ar    1  UNL1        0.0002
     24 C         137.8505  141.9721  164.4591 C.ar    1  UNL1        0.0031
     25 C         137.6036  140.8788  163.4622 C.ar    1  UNL1        0.0369
@<TRIPOS>BOND
     1     8     9    2
     2     9    10   am
     3    10     7    1
     4     1     7    1
     5     1     2    1
     6     2     3    1
     7     3     4    1
     8     4    17    1
     9    17    18    1
    10    18    19    1
    11    19    20    1
    12    20    21   ar
    13    21    22   ar
    14    22    23   ar
    15    23    24   ar
    16    24    25   ar
    17     4     5    1
    18     5     6    1
    19     9    12    1
    20    12    13    2
    21    13    14    1
    22    14    15    2
    23    15    16    1
    24     6     1    1
    25    16    12    1
    26    25    20   ar
    27    10    11    1
@<TRIPOS>MOLECULE
*****
 25 27 0 0 0
SMALL
GASTEIGER

@<TRIPOS>ATOM
      1 C         142.6204  139.7787  165.0158 C.3     1  UNL1        0.0196
      2 C         142.0647  140.8547  164.1308 C.3     1  UNL1        0.0017
      3 C         141.5505  140.5108  162.7643 C.3     1  UNL1        0.0002
      4 C         141.5921  139.0908  162.2829 C.3     1  UNL1        0.0037
      5 C         142.1479  138.0147  163.1679 C.3     1  UNL1        0.0002
      6 C         142.6620  138.3587  164.5344 C.3     1  UNL1        0.0017
      7 C         143.1345  140.1227  166.3824 C.3     1  UNL1        0.0896
      8 O         143.1110  139.3024  169.2680 O.2     1  UNL1       -0.2704
      9 C         142.2373  140.4289  168.8014 C.2     1  UNL1        0.2454
     10 N         142.2491  140.8390  167.3585 N.am    1  UNL1       -0.3010
     11 H         141.6756  141.5783  167.0522 H       1  UNL1        0.1497
     12 C         141.3519  141.1452  169.7775 C.2     1  UNL1        0.0782
     13 C         140.0421  141.8041  169.4607 C.2     1  UNL1        0.1240
     14 N         139.5014  142.3945  170.7291 N.2     1  UNL1       -0.1509
     15 N         140.4771  142.1004  171.8300 N.2     1  UNL1       -0.1693
     16 C         141.6206  141.3283  171.2418 C.3     1  UNL1        0.1816
     17 C         141.0780  138.7468  160.9163 C.3     1  UNL1        0.0473
     18 C         139.6084  138.8249  160.6263 C.3     1  UNL1        0.2054
     19 O         138.6252  138.1749  161.5542 O.3     1  UNL1       -0.4755
     20 C         138.5286  138.6270  162.9811 C.ar    1  UNL1        0.1386
     21 C         138.1514  140.0445  163.2948 C.ar    1  UNL1        0.0369
     22 C         138.0548  140.4966  164.7218 C.ar    1  UNL1        0.0031
     23 C         138.3355  139.5313  165.8351 C.ar    1  UNL1        0.0002
     24 C         138.7128  138.1138  165.5213 C.ar    1  UNL1        0.0031
     25 C         138.8094  137.6617  164.0943 C.ar    1  UNL1        0.0369
@<TRIPOS>BOND
     1     8     9    2
     2     9    10   am
     3    10     7    1
     4     1     7    1
     5     1     2    1
     6     2     3    1
     7     3     4    1
     8     4    17    1
     9    17    18    1
    10    18    19    1
    11    19    20    1
    12    20    21   ar
    13    21    22   ar
    14    22    23   ar
    15    23    24   ar
    16    24    25   ar
    17     4     5    1
    18     5     6    1
    19     9    12    1
    20    12    13    2
    21    13    14    1
    22    14    15    2
    23    15    16    1
    24     6     1    1
    25    16    12    1
    26    25    20   ar
    27    10    11    1
