@<TRIPOS>MOLECULE
*****
 29 31 0 0 0
SMALL
GASTEIGER

@<TRIPOS>ATOM
      1 C         139.9242  144.6580  164.0512 C.ar    1  UNL1        0.1404
      2 C         139.7968  145.1472  162.6391 C.ar    1  UNL1        0.0430
      3 C         140.9327  144.9645  161.6766 C.ar    1  UNL1        0.0754
      4 C         142.1961  144.2925  162.1264 C.ar    1  UNL1        0.1033
      5 N         143.4741  143.9744  161.4085 N.ar    1  UNL1       -0.2238
      6 C         144.3914  143.2886  162.3771 C.ar    1  UNL1        0.1788
      7 N         143.6803  143.1828  163.6936 N.ar    1  UNL1       -0.3031
      8 C         142.3235  143.8033  163.5386 C.ar    1  UNL1        0.0824
      9 C         141.1876  143.9860  164.5011 C.ar    1  UNL1        0.0556
     10 C         140.8052  145.4537  160.2643 C.2     1  UNL1        0.2475
     11 O         139.5124  146.0490  159.7907 O.2     1  UNL1       -0.2701
     12 N         141.9704  145.3477  159.3258 N.am    1  UNL1       -0.2982
     13 H         142.8190  144.9570  159.6366 H       1  UNL1        0.1498
     14 C         141.8428  145.8370  157.9135 C.3     1  UNL1        0.1280
     15 C         142.1943  144.9307  156.7712 C.3     1  UNL1        0.2144
     16 F         142.5969  145.5125  155.4485 F       1  UNL1       -0.2324
     17 C         137.4948  144.1136  164.7939 C.3     1  UNL1        0.2525
     18 O         138.7882  144.8407  165.0137 O.3     1  UNL1       -0.4714
     19 C         144.2296  142.5650  164.9452 C.3     1  UNL1        0.1531
     20 C         143.6973  141.2483  165.4278 C.ar    1  UNL1        0.0823
     21 N         143.9221  140.0062  164.6178 N.ar    1  UNL1       -0.2266
     22 C         143.3898  138.6894  165.1003 C.ar    1  UNL1        0.1998
     23 N         142.6325  138.6150  166.3930 N.ar    1  UNL1       -0.2093
     24 C         142.4077  139.8573  167.2031 C.ar    1  UNL1        0.1307
     25 C         142.9400  141.1739  166.7205 C.ar    1  UNL1        0.0253
     26 C         142.7152  142.4162  167.5306 C.3     1  UNL1        0.0353
     27 N         141.6504  139.7828  168.4958 N.pl3   1  UNL1       -0.2899
     28 C         140.1817  140.0858  168.5232 C.3     1  UNL1        0.1136
     29 C         142.3620  139.4052  169.7611 C.3     1  UNL1        0.1136
@<TRIPOS>BOND
     1    17    18    1
     2    18     1    1
     3     1     2   ar
     4     2     3   ar
     5     3    10    1
     6    10    11    2
     7    10    12   am
     8    12    14    1
     9    14    15    1
    10    15    16    1
    11     3     4   ar
    12     4     5   ar
    13     5     6   ar
    14     6     7   ar
    15     7    19    1
    16    19    20    1
    17    20    21   ar
    18    21    22   ar
    19    22    23   ar
    20    23    24   ar
    21    24    27    1
    22    27    28    1
    23    27    29    1
    24    24    25   ar
    25    25    26    1
    26     7     8   ar
    27     8     9   ar
    28     9     1   ar
    29     8     4   ar
    30    25    20   ar
    31    12    13    1
@<TRIPOS>MOLECULE
*****
 29 31 0 0 0
SMALL
GASTEIGER

@<TRIPOS>ATOM
      1 C         141.3535  139.6828  164.0338 C.ar    1  UNL1        0.1404
      2 C         141.6350  139.4701  165.4917 C.ar    1  UNL1        0.0430
      3 C         142.4694  140.4619  166.2469 C.ar    1  UNL1        0.0754
      4 C         143.0222  141.6663  165.5441 C.ar    1  UNL1        0.1033
      5 N         143.8709  142.8065  166.0234 N.ar    1  UNL1       -0.2238
      6 C         144.1138  143.7237  164.8617 C.ar    1  UNL1        0.1788
      7 N         143.4153  143.1505  163.6644 N.ar    1  UNL1       -0.3031
      8 C         142.7406  141.8789  164.0862 C.ar    1  UNL1        0.0824
      9 C         141.9063  140.8871  163.3310 C.ar    1  UNL1        0.0556
     10 C         142.7510  140.2493  167.7048 C.2     1  UNL1        0.2475
     11 O         143.0485  138.8715  168.2180 O.2     1  UNL1       -0.2701
     12 N         142.7349  141.4142  168.6495 N.am    1  UNL1       -0.2982
     13 H         142.5396  142.3185  168.3127 H       1  UNL1        0.1498
     14 C         143.0164  141.2015  170.1074 C.3     1  UNL1        0.1280
     15 C         141.8887  140.9218  171.0561 C.3     1  UNL1        0.2144
     16 F         140.9276  142.0140  171.4216 F       1  UNL1       -0.2324
     17 C         140.9474  137.2555  163.2010 C.3     1  UNL1        0.2525
     18 O         140.5191  138.6910  163.2786 O.3     1  UNL1       -0.4714
     19 C         143.3950  143.7445  162.2872 C.3     1  UNL1        0.1531
     20 C         142.1541  144.4164  161.7784 C.ar    1  UNL1        0.0823
     21 N         141.2984  145.2184  162.7135 N.ar    1  UNL1       -0.2266
     22 C         140.0575  145.8903  162.2047 C.ar    1  UNL1        0.1998
     23 N         139.6725  145.7601  160.7608 N.ar    1  UNL1       -0.2093
     24 C         140.5283  144.9581  159.8257 C.ar    1  UNL1        0.1307
     25 C         141.7691  144.2863  160.3345 C.ar    1  UNL1        0.0253
     26 C         142.6250  143.4843  159.3995 C.3     1  UNL1        0.0353
     27 N         140.1432  144.8280  158.3818 N.pl3   1  UNL1       -0.2899
     28 C         139.4061  143.6103  157.9089 C.3     1  UNL1        0.1136
     29 C         140.4953  145.9158  157.4109 C.3     1  UNL1        0.1136
@<TRIPOS>BOND
     1    17    18    1
     2    18     1    1
     3     1     2   ar
     4     2     3   ar
     5     3    10    1
     6    10    11    2
     7    10    12   am
     8    12    14    1
     9    14    15    1
    10    15    16    1
    11     3     4   ar
    12     4     5   ar
    13     5     6   ar
    14     6     7   ar
    15     7    19    1
    16    19    20    1
    17    20    21   ar
    18    21    22   ar
    19    22    23   ar
    20    23    24   ar
    21    24    27    1
    22    27    28    1
    23    27    29    1
    24    24    25   ar
    25    25    26    1
    26     7     8   ar
    27     8     9   ar
    28     9     1   ar
    29     8     4   ar
    30    25    20   ar
    31    12    13    1
@<TRIPOS>MOLECULE
*****
 29 31 0 0 0
SMALL
GASTEIGER

@<TRIPOS>ATOM
      1 C         138.9265  140.4561  163.9396 C.ar    1  UNL1        0.1404
      2 C         138.9187  140.0338  165.3788 C.ar    1  UNL1        0.0430
      3 C         140.0111  140.4897  166.3002 C.ar    1  UNL1        0.0754
      4 C         141.1112  141.3680  165.7822 C.ar    1  UNL1        0.1033
      5 N         142.3127  141.9701  166.4485 N.ar    1  UNL1       -0.2238
      6 C         143.0630  142.7646  165.4209 C.ar    1  UNL1        0.1788
      7 N         142.3252  142.6536  164.1196 N.ar    1  UNL1       -0.3031
      8 C         141.1189  141.7904  164.3429 C.ar    1  UNL1        0.0824
      9 C         140.0266  141.3344  163.4216 C.ar    1  UNL1        0.0556
     10 C         140.0034  140.0673  167.7395 C.2     1  UNL1        0.2475
     11 O         138.7507  139.5145  168.3521 O.2     1  UNL1       -0.2701
     12 N         141.2482  140.1977  168.5662 N.am    1  UNL1       -0.2982
     13 H         142.0703  140.5605  168.1641 H       1  UNL1        0.1498
     14 C         141.2403  139.7753  170.0054 C.3     1  UNL1        0.1280
     15 C         140.8049  140.7404  171.0680 C.3     1  UNL1        0.2144
     16 F         141.7866  141.7201  171.6393 F       1  UNL1       -0.2324
     17 C         138.0534  138.8169  162.1228 C.3     1  UNL1        0.2525
     18 O         137.8341  140.0002  163.0182 O.3     1  UNL1       -0.4714
     19 C         142.7238  143.2933  162.8228 C.3     1  UNL1        0.1531
     20 C         141.7508  144.1661  162.0868 C.ar    1  UNL1        0.0823
     21 N         140.8298  145.0715  162.8496 N.ar    1  UNL1       -0.2266
     22 C         139.8569  145.9444  162.1138 C.ar    1  UNL1        0.1998
     23 N         139.8050  145.9117  160.6150 N.ar    1  UNL1       -0.2093
     24 C         140.7260  145.0062  159.8522 C.ar    1  UNL1        0.1307
     25 C         141.6989  144.1335  160.5881 C.ar    1  UNL1        0.0253
     26 C         142.6199  143.2280  159.8253 C.3     1  UNL1        0.0353
     27 N         140.6740  144.9737  158.3534 N.pl3   1  UNL1       -0.2899
     28 C         139.7451  144.0250  157.6556 C.3     1  UNL1        0.1136
     29 C         141.5510  145.8899  157.5526 C.3     1  UNL1        0.1136
@<TRIPOS>BOND
     1    17    18    1
     2    18     1    1
     3     1     2   ar
     4     2     3   ar
     5     3    10    1
     6    10    11    2
     7    10    12   am
     8    12    14    1
     9    14    15    1
    10    15    16    1
    11     3     4   ar
    12     4     5   ar
    13     5     6   ar
    14     6     7   ar
    15     7    19    1
    16    19    20    1
    17    20    21   ar
    18    21    22   ar
    19    22    23   ar
    20    23    24   ar
    21    24    27    1
    22    27    28    1
    23    27    29    1
    24    24    25   ar
    25    25    26    1
    26     7     8   ar
    27     8     9   ar
    28     9     1   ar
    29     8     4   ar
    30    25    20   ar
    31    12    13    1
@<TRIPOS>MOLECULE
*****
 29 31 0 0 0
SMALL
GASTEIGER

@<TRIPOS>ATOM
      1 C         139.0731  138.5243  163.3614 C.ar    1  UNL1        0.1404
      2 C         138.6197  138.8002  164.7643 C.ar    1  UNL1        0.0430
      3 C         139.6235  139.1565  165.8206 C.ar    1  UNL1        0.0754
      4 C         141.0806  139.2368  165.4737 C.ar    1  UNL1        0.1033
      5 N         142.2918  139.5618  166.2968 N.ar    1  UNL1       -0.2238
      6 C         143.4937  139.4868  165.4025 C.ar    1  UNL1        0.1788
      7 N         143.0253  139.1155  164.0267 N.ar    1  UNL1       -0.3031
      8 C         141.5340  138.9610  164.0707 C.ar    1  UNL1        0.0824
      9 C         140.5302  138.6047  163.0146 C.ar    1  UNL1        0.0556
     10 C         139.1701  139.4323  167.2236 C.2     1  UNL1        0.2475
     11 O         137.9261  138.7812  167.7513 O.2     1  UNL1       -0.2701
     12 N         139.9606  140.3592  168.0987 N.am    1  UNL1       -0.2982
     13 H         140.7771  140.7865  167.7523 H       1  UNL1        0.1498
     14 C         139.5071  140.6349  169.5017 C.3     1  UNL1        0.1280
     15 C         139.8113  141.9568  170.1420 C.3     1  UNL1        0.2144
     16 F         139.9822  143.1806  169.2916 F       1  UNL1       -0.2324
     17 C         137.6835  139.1786  161.2659 C.3     1  UNL1        0.2525
     18 O         138.0693  138.1681  162.3052 O.3     1  UNL1       -0.4714
     19 C         143.8956  138.9310  162.8190 C.3     1  UNL1        0.1531
     20 C         144.0899  140.0634  161.8546 C.ar    1  UNL1        0.0823
     21 N         144.6747  141.3606  162.3290 N.ar    1  UNL1       -0.2266
     22 C         144.8691  142.4929  161.3647 C.ar    1  UNL1        0.1998
     23 N         144.4786  142.3279  159.9258 N.ar    1  UNL1       -0.2093
     24 C         143.8938  141.0307  159.4513 C.ar    1  UNL1        0.1307
     25 C         143.6995  139.8984  160.4157 C.ar    1  UNL1        0.0253
     26 C         143.1147  138.6011  159.9413 C.3     1  UNL1        0.0353
     27 N         143.5034  140.8658  158.0124 N.pl3   1  UNL1       -0.2899
     28 C         144.5257  140.4364  157.0023 C.3     1  UNL1        0.1136
     29 C         142.0905  141.1304  157.5837 C.3     1  UNL1        0.1136
@<TRIPOS>BOND
     1    17    18    1
     2    18     1    1
     3     1     2   ar
     4     2     3   ar
     5     3    10    1
     6    10    11    2
     7    10    12   am
     8    12    14    1
     9    14    15    1
    10    15    16    1
    11     3     4   ar
    12     4     5   ar
    13     5     6   ar
    14     6     7   ar
    15     7    19    1
    16    19    20    1
    17    20    21   ar
    18    21    22   ar
    19    22    23   ar
    20    23    24   ar
    21    24    27    1
    22    27    28    1
    23    27    29    1
    24    24    25   ar
    25    25    26    1
    26     7     8   ar
    27     8     9   ar
    28     9     1   ar
    29     8     4   ar
    30    25    20   ar
    31    12    13    1
@<TRIPOS>MOLECULE
*****
 29 31 0 0 0
SMALL
GASTEIGER

@<TRIPOS>ATOM
      1 C         142.1956  141.4072  168.0693 C.ar    1  UNL1        0.1404
      2 C         141.1128  141.3689  169.1064 C.ar    1  UNL1        0.0430
      3 C         139.8373  140.6285  168.8322 C.ar    1  UNL1        0.0754
      4 C         139.6449  139.9264  167.5208 C.ar    1  UNL1        0.1033
      5 N         138.5043  139.1224  166.9706 N.ar    1  UNL1       -0.2238
      6 C         138.8823  138.6639  165.5933 C.ar    1  UNL1        0.1788
      7 N         140.2565  139.1844  165.2923 N.ar    1  UNL1       -0.3031
      8 C         140.7279  139.9647  166.4835 C.ar    1  UNL1        0.0824
      9 C         142.0032  140.7051  166.7578 C.ar    1  UNL1        0.0556
     10 C         138.7544  140.5902  169.8695 C.2     1  UNL1        0.2475
     11 O         138.5747  141.7456  170.8090 O.2     1  UNL1       -0.2701
     12 N         137.8514  139.3966  169.9672 N.am    1  UNL1       -0.2982
     13 H         137.9693  138.6382  169.3506 H       1  UNL1        0.1498
     14 C         136.7685  139.3584  171.0045 C.3     1  UNL1        0.1280
     15 C         136.1013  138.0587  171.3447 C.3     1  UNL1        0.2144
     16 F         136.3591  137.4078  172.6713 F       1  UNL1       -0.2324
     17 C         143.9139  142.3805  169.7576 C.3     1  UNL1        0.2525
     18 O         143.4710  142.1477  168.3435 O.3     1  UNL1       -0.4714
     19 C         141.0245  138.9635  164.0229 C.3     1  UNL1        0.1531
     20 C         142.4002  139.5412  163.8684 C.ar    1  UNL1        0.0823
     21 N         143.5829  138.8286  164.4543 N.ar    1  UNL1       -0.2266
     22 C         144.9586  139.4062  164.2998 C.ar    1  UNL1        0.1998
     23 N         145.1515  140.6965  163.5593 N.ar    1  UNL1       -0.2093
     24 C         143.9686  141.4090  162.9735 C.ar    1  UNL1        0.1307
     25 C         142.5931  140.8313  163.1280 C.ar    1  UNL1        0.0253
     26 C         141.4103  141.5438  162.5421 C.3     1  UNL1        0.0353
     27 N         144.1616  142.6992  162.2330 N.pl3   1  UNL1       -0.2899
     28 C         144.3884  142.6864  160.7504 C.3     1  UNL1        0.1136
     29 C         144.1278  144.0021  162.9754 C.3     1  UNL1        0.1136
@<TRIPOS>BOND
     1    17    18    1
     2    18     1    1
     3     1     2   ar
     4     2     3   ar
     5     3    10    1
     6    10    11    2
     7    10    12   am
     8    12    14    1
     9    14    15    1
    10    15    16    1
    11     3     4   ar
    12     4     5   ar
    13     5     6   ar
    14     6     7   ar
    15     7    19    1
    16    19    20    1
    17    20    21   ar
    18    21    22   ar
    19    22    23   ar
    20    23    24   ar
    21    24    27    1
    22    27    28    1
    23    27    29    1
    24    24    25   ar
    25    25    26    1
    26     7     8   ar
    27     8     9   ar
    28     9     1   ar
    29     8     4   ar
    30    25    20   ar
    31    12    13    1
@<TRIPOS>MOLECULE
*****
 29 31 0 0 0
SMALL
GASTEIGER

@<TRIPOS>ATOM
      1 C         141.9256  141.8136  168.2344 C.ar    1  UNL1        0.1404
      2 C         141.1467  141.2485  169.3849 C.ar    1  UNL1        0.0430
      3 C         139.9224  140.4209  169.1274 C.ar    1  UNL1        0.0754
      4 C         139.4772  140.1585  167.7193 C.ar    1  UNL1        0.1033
      5 N         138.3197  139.3853  167.1603 N.ar    1  UNL1       -0.2238
      6 C         138.3834  139.4726  165.6642 C.ar    1  UNL1        0.1788
      7 N         139.5801  140.2997  165.2986 N.ar    1  UNL1       -0.3031
      8 C         140.2561  140.7236  166.5687 C.ar    1  UNL1        0.0824
      9 C         141.4804  141.5512  166.8263 C.ar    1  UNL1        0.0556
     10 C         139.1435  139.8558  170.2781 C.2     1  UNL1        0.2475
     11 O         139.8575  139.4069  171.5186 O.2     1  UNL1       -0.2701
     12 N         137.6508  139.7396  170.1882 N.am    1  UNL1       -0.2982
     13 H         137.1822  140.0342  169.3740 H       1  UNL1        0.1498
     14 C         136.8719  139.1744  171.3389 C.3     1  UNL1        0.1280
     15 C         136.0063  137.9662  171.1373 C.3     1  UNL1        0.2144
     16 F         136.0678  136.8281  172.1125 F       1  UNL1       -0.2324
     17 C         143.9430  142.4364  169.7485 C.3     1  UNL1        0.2525
     18 O         143.1499  142.6413  168.4919 O.3     1  UNL1       -0.4714
     19 C         140.0230  140.6427  163.9071 C.3     1  UNL1        0.1531
     20 C         139.4778  141.8628  163.2258 C.ar    1  UNL1        0.0823
     21 N         138.3346  142.6160  163.8384 N.ar    1  UNL1       -0.2266
     22 C         137.7893  143.8361  163.1572 C.ar    1  UNL1        0.1998
     23 N         138.3875  144.3029  161.8631 N.ar    1  UNL1       -0.2093
     24 C         139.5308  143.5495  161.2505 C.ar    1  UNL1        0.1307
     25 C         140.0759  142.3295  161.9318 C.ar    1  UNL1        0.0253
     26 C         141.2193  141.5762  161.3192 C.3     1  UNL1        0.0353
     27 N         140.1288  144.0164  159.9565 N.pl3   1  UNL1       -0.2899
     28 C         141.2244  145.0408  159.9629 C.3     1  UNL1        0.1136
     29 C         139.6313  143.4586  158.6560 C.3     1  UNL1        0.1136
@<TRIPOS>BOND
     1    17    18    1
     2    18     1    1
     3     1     2   ar
     4     2     3   ar
     5     3    10    1
     6    10    11    2
     7    10    12   am
     8    12    14    1
     9    14    15    1
    10    15    16    1
    11     3     4   ar
    12     4     5   ar
    13     5     6   ar
    14     6     7   ar
    15     7    19    1
    16    19    20    1
    17    20    21   ar
    18    21    22   ar
    19    22    23   ar
    20    23    24   ar
    21    24    27    1
    22    27    28    1
    23    27    29    1
    24    24    25   ar
    25    25    26    1
    26     7     8   ar
    27     8     9   ar
    28     9     1   ar
    29     8     4   ar
    30    25    20   ar
    31    12    13    1
@<TRIPOS>MOLECULE
*****
 29 31 0 0 0
SMALL
GASTEIGER

@<TRIPOS>ATOM
      1 C         144.1932  142.4023  162.0839 C.ar    1  UNL1        0.1404
      2 C         143.9179  142.8537  160.6803 C.ar    1  UNL1        0.0430
      3 C         142.6366  143.5641  160.3585 C.ar    1  UNL1        0.0754
      4 C         141.6305  143.8231  161.4405 C.ar    1  UNL1        0.1033
      5 N         140.2895  144.4949  161.4241 N.ar    1  UNL1       -0.2238
      6 C         139.7359  144.4587  162.8178 C.ar    1  UNL1        0.1788
      7 N         140.7348  143.7645  163.6954 N.ar    1  UNL1       -0.3031
      8 C         141.9058  143.3717  162.8442 C.ar    1  UNL1        0.0824
      9 C         143.1871  142.6613  163.1659 C.ar    1  UNL1        0.0556
     10 C         142.3614  144.0155  158.9547 C.2     1  UNL1        0.2475
     11 O         142.5339  143.0592  157.8120 O.2     1  UNL1       -0.2701
     12 N         141.9138  145.4232  158.6937 N.am    1  UNL1       -0.2982
     13 H         141.8006  146.0508  159.4436 H       1  UNL1        0.1498
     14 C         141.6386  145.8745  157.2899 C.3     1  UNL1        0.1280
     15 C         140.2258  146.0914  156.8351 C.3     1  UNL1        0.2144
     16 F         139.4368  147.2517  157.3657 F       1  UNL1       -0.2324
     17 C         145.7881  141.3163  163.8237 C.3     1  UNL1        0.2525
     18 O         145.4745  141.6919  162.4057 O.3     1  UNL1       -0.4714
     19 C         140.5885  143.5081  165.1661 C.3     1  UNL1        0.1531
     20 C         140.2548  142.1308  165.6578 C.ar    1  UNL1        0.0823
     21 N         139.8774  141.0568  164.6811 N.ar    1  UNL1       -0.2266
     22 C         139.5438  139.6795  165.1727 C.ar    1  UNL1        0.1998
     23 N         139.5875  139.3763  166.6412 N.ar    1  UNL1       -0.2093
     24 C         139.9649  140.4504  167.6178 C.ar    1  UNL1        0.1307
     25 C         140.2985  141.8276  167.1262 C.ar    1  UNL1        0.0253
     26 C         140.6759  142.9017  168.1028 C.3     1  UNL1        0.0353
     27 N         140.0086  140.1471  169.0862 N.pl3   1  UNL1       -0.2899
     28 C         138.7787  140.3260  169.9260 C.3     1  UNL1        0.1136
     29 C         141.2823  139.6650  169.7148 C.3     1  UNL1        0.1136
@<TRIPOS>BOND
     1    17    18    1
     2    18     1    1
     3     1     2   ar
     4     2     3   ar
     5     3    10    1
     6    10    11    2
     7    10    12   am
     8    12    14    1
     9    14    15    1
    10    15    16    1
    11     3     4   ar
    12     4     5   ar
    13     5     6   ar
    14     6     7   ar
    15     7    19    1
    16    19    20    1
    17    20    21   ar
    18    21    22   ar
    19    22    23   ar
    20    23    24   ar
    21    24    27    1
    22    27    28    1
    23    27    29    1
    24    24    25   ar
    25    25    26    1
    26     7     8   ar
    27     8     9   ar
    28     9     1   ar
    29     8     4   ar
    30    25    20   ar
    31    12    13    1
@<TRIPOS>MOLECULE
*****
 29 31 0 0 0
SMALL
GASTEIGER

@<TRIPOS>ATOM
      1 C         143.2246  139.1916  165.5307 C.ar    1  UNL1        0.1404
      2 C         142.9488  139.8539  166.8479 C.ar    1  UNL1        0.0430
      3 C         141.5381  139.9835  167.3414 C.ar    1  UNL1        0.0754
      4 C         140.4035  139.4507  166.5176 C.ar    1  UNL1        0.1033
      5 N         138.9207  139.4340  166.7433 N.ar    1  UNL1       -0.2238
      6 C         138.2802  138.7613  165.5655 C.ar    1  UNL1        0.1788
      7 N         139.3671  138.3623  164.6119 N.ar    1  UNL1       -0.3031
      8 C         140.6794  138.7884  165.2003 C.ar    1  UNL1        0.0824
      9 C         142.0900  138.6588  164.7069 C.ar    1  UNL1        0.0556
     10 C         141.2623  140.6459  168.6587 C.2     1  UNL1        0.2475
     11 O         142.3864  140.9063  169.6171 O.2     1  UNL1       -0.2701
     12 N         139.8624  141.0478  169.0175 N.am    1  UNL1       -0.2982
     13 H         139.1246  140.8768  168.3885 H       1  UNL1        0.1498
     14 C         139.5867  141.7101  170.3348 C.3     1  UNL1        0.1280
     15 C         139.9205  143.1594  170.5300 C.3     1  UNL1        0.2144
     16 F         140.8791  143.8404  169.5986 F       1  UNL1       -0.2324
     17 C         145.2132  140.1111  164.1342 C.3     1  UNL1        0.2525
     18 O         144.6352  139.0620  165.0372 O.3     1  UNL1       -0.4714
     19 C         139.1754  137.6604  163.3002 C.3     1  UNL1        0.1531
     20 C         139.7472  138.2484  162.0443 C.ar    1  UNL1        0.0823
     21 N         141.0384  137.7231  161.4906 N.ar    1  UNL1       -0.2266
     22 C         141.6103  138.3111  160.2347 C.ar    1  UNL1        0.1998
     23 N         140.8908  139.4244  159.5325 N.ar    1  UNL1       -0.2093
     24 C         139.5995  139.9497  160.0863 C.ar    1  UNL1        0.1307
     25 C         139.0278  139.3617  161.3421 C.ar    1  UNL1        0.0253
     26 C         137.7365  139.8870  161.8959 C.3     1  UNL1        0.0353
     27 N         138.8801  141.0630  159.3841 N.pl3   1  UNL1       -0.2899
     28 C         139.1069  142.4849  159.8040 C.3     1  UNL1        0.1136
     29 C         137.9340  140.7541  158.2619 C.3     1  UNL1        0.1136
@<TRIPOS>BOND
     1    17    18    1
     2    18     1    1
     3     1     2   ar
     4     2     3   ar
     5     3    10    1
     6    10    11    2
     7    10    12   am
     8    12    14    1
     9    14    15    1
    10    15    16    1
    11     3     4   ar
    12     4     5   ar
    13     5     6   ar
    14     6     7   ar
    15     7    19    1
    16    19    20    1
    17    20    21   ar
    18    21    22   ar
    19    22    23   ar
    20    23    24   ar
    21    24    27    1
    22    27    28    1
    23    27    29    1
    24    24    25   ar
    25    25    26    1
    26     7     8   ar
    27     8     9   ar
    28     9     1   ar
    29     8     4   ar
    30    25    20   ar
    31    12    13    1
@<TRIPOS>MOLECULE
*****
 29 31 0 0 0
SMALL
GASTEIGER

@<TRIPOS>ATOM
      1 C         139.5495  139.1382  165.0239 C.ar    1  UNL1        0.1404
      2 C         140.3412  139.2865  166.2892 C.ar    1  UNL1        0.0430
      3 C         140.5692  140.6480  166.8761 C.ar    1  UNL1        0.0754
      4 C         140.0055  141.8611  166.1976 C.ar    1  UNL1        0.1033
      5 N         140.0658  143.3207  166.5383 N.ar    1  UNL1       -0.2238
      6 C         139.3114  144.0744  165.4834 C.ar    1  UNL1        0.1788
      7 N         138.7849  143.0807  164.4908 N.ar    1  UNL1       -0.3031
      8 C         139.2138  141.7128  164.9321 C.ar    1  UNL1        0.0824
      9 C         138.9859  140.3514  164.3453 C.ar    1  UNL1        0.0556
     10 C         141.3609  140.7962  168.1416 C.2     1  UNL1        0.2475
     11 O         141.0187  139.9644  169.3420 O.2     1  UNL1       -0.2701
     12 N         142.4946  141.7761  168.2065 N.am    1  UNL1       -0.2982
     13 H         142.7192  142.3221  167.4186 H       1  UNL1        0.1498
     14 C         143.2862  141.9243  169.4720 C.3     1  UNL1        0.1280
     15 C         142.9242  142.9909  170.4626 C.3     1  UNL1        0.2144
     16 F         141.7258  143.8608  170.2238 F       1  UNL1       -0.2324
     17 C         138.8016  137.6413  163.0365 C.3     1  UNL1        0.2525
     18 O         139.3215  137.7767  164.4369 O.3     1  UNL1       -0.4714
     19 C         137.9721  143.3991  163.2709 C.3     1  UNL1        0.1531
     20 C         138.6527  143.8523  162.0134 C.ar    1  UNL1        0.0823
     21 N         139.2273  145.2352  161.9282 N.ar    1  UNL1       -0.2266
     22 C         139.9079  145.6884  160.6707 C.ar    1  UNL1        0.1998
     23 N         140.0139  144.7586  159.4984 N.ar    1  UNL1       -0.2093
     24 C         139.4393  143.3757  159.5836 C.ar    1  UNL1        0.1307
     25 C         138.7587  142.9225  160.8411 C.ar    1  UNL1        0.0253
     26 C         138.1841  141.5396  160.9263 C.3     1  UNL1        0.0353
     27 N         139.5453  142.4460  158.4113 N.pl3   1  UNL1       -0.2899
     28 C         138.4626  142.4209  157.3735 C.3     1  UNL1        0.1136
     29 C         140.7342  141.5413  158.2768 C.3     1  UNL1        0.1136
@<TRIPOS>BOND
     1    17    18    1
     2    18     1    1
     3     1     2   ar
     4     2     3   ar
     5     3    10    1
     6    10    11    2
     7    10    12   am
     8    12    14    1
     9    14    15    1
    10    15    16    1
    11     3     4   ar
    12     4     5   ar
    13     5     6   ar
    14     6     7   ar
    15     7    19    1
    16    19    20    1
    17    20    21   ar
    18    21    22   ar
    19    22    23   ar
    20    23    24   ar
    21    24    27    1
    22    27    28    1
    23    27    29    1
    24    24    25   ar
    25    25    26    1
    26     7     8   ar
    27     8     9   ar
    28     9     1   ar
    29     8     4   ar
    30    25    20   ar
    31    12    13    1
