@<TRIPOS>MOLECULE
*****
 36 40 0 0 0
SMALL
GASTEIGER

@<TRIPOS>ATOM
      1 N         142.4485  141.3586  167.1339 N.ar    1  UNL1       -0.2815
      2 C         142.6063  141.9892  168.4857 C.ar    1  UNL1        0.3316
      3 O         143.7417  142.8670  168.9219 O.2     1  UNL1       -0.2463
      4 N         141.4293  141.5880  169.3245 N.ar    1  UNL1       -0.2765
      5 C         141.1811  141.9941  170.7470 C.3     1  UNL1        0.1352
      6 C         140.5441  140.7094  168.4912 C.ar    1  UNL1        0.0989
      7 C         139.2459  140.0201  168.7904 C.ar    1  UNL1        0.1175
      8 N         138.5775  139.1891  167.7356 N.ar    1  UNL1       -0.2422
      9 C         139.2074  139.0473  166.3816 C.ar    1  UNL1        0.0850
     10 C         138.5390  138.2162  165.3268 C.ar    1  UNL1        0.0488
     11 C         139.1688  138.0744  163.9729 C.ar    1  UNL1        0.1417
     12 F         138.5005  137.2434  162.9181 F       1  UNL1       -0.2041
     13 C         140.4671  138.7637  163.6738 C.ar    1  UNL1        0.0313
     14 C         141.1355  139.5948  164.7286 C.ar    1  UNL1        0.0053
     15 C         140.5056  139.7366  166.0825 C.ar    1  UNL1        0.0352
     16 C         141.1739  140.5676  167.1373 C.ar    1  UNL1        0.0826
     17 C         141.0970  138.6219  162.3198 C.ar    1  UNL1        0.0483
     18 C         142.4094  137.9102  162.1740 C.ar    1  UNL1        0.0087
     19 C         143.0392  137.7684  160.8200 C.ar    1  UNL1        0.0579
     20 C         142.3567  138.3383  159.6119 C.ar    1  UNL1        0.2268
     21 N         141.0444  139.0500  159.7578 N.ar    1  UNL1       -0.1832
     22 C         140.4146  139.1918  161.1117 C.ar    1  UNL1        0.2248
     23 F         139.1023  139.9035  161.2576 F       1  UNL1       -0.1831
     24 O         142.9866  138.1965  158.2580 O.3     1  UNL1       -0.4601
     25 C         142.5595  137.0858  157.3447 C.3     1  UNL1        0.2085
     26 C         143.3000  136.8420  156.0632 C.3     1  UNL1        0.0647
     27 C         143.9355  135.5078  155.8064 C.3     1  UNL1        0.0760
     28 N         143.3025  134.2593  156.3455 N.3     1  UNL1       -0.2702
     29 C         143.9254  133.5443  157.5079 C.3     1  UNL1        0.0897
     30 C         142.0467  133.7258  155.7224 C.3     1  UNL1        0.0897
     31 C         144.7417  141.6877  164.3506 C.3     1  UNL1        0.1191
     32 C         144.0119  142.6475  165.2428 C.3     1  UNL1        0.0524
     33 C         143.3983  141.4949  165.9810 C.3     1  UNL1        0.0947
     34 C         144.1281  140.5350  165.0887 C.3     1  UNL1        0.0524
     35 C         145.1687  142.1453  161.8290 C.3     1  UNL1        0.1740
     36 O         145.6916  141.8240  163.1977 O.3     1  UNL1       -0.3534
@<TRIPOS>BOND
     1    35    36    1
     2    31    36    1
     3    31    32    1
     4    32    33    1
     5    33     1    1
     6     1     2   ar
     7     2     3    2
     8     2     4   ar
     9     4     5    1
    10     4     6   ar
    11     6     7   ar
    12     7     8   ar
    13     8     9   ar
    14     9    10   ar
    15    10    11   ar
    16    11    12    1
    17    11    13   ar
    18    13    17    1
    19    17    18   ar
    20    18    19   ar
    21    19    20   ar
    22    20    24    1
    23    24    25    1
    24    25    26    1
    25    26    27    1
    26    27    28    1
    27    28    29    1
    28    28    30    1
    29    20    21   ar
    30    21    22   ar
    31    22    23    1
    32    13    14   ar
    33    14    15   ar
    34    15    16   ar
    35    33    34    1
    36    34    31    1
    37    16     1   ar
    38    16     6   ar
    39    15     9   ar
    40    22    17   ar
@<TRIPOS>MOLECULE
*****
 36 40 0 0 0
SMALL
GASTEIGER

@<TRIPOS>ATOM
      1 N         140.0009  139.8774  166.4950 N.ar    1  UNL1       -0.2815
      2 C         139.2337  139.7706  167.7795 C.ar    1  UNL1        0.3316
      3 O         137.9893  138.9621  167.9987 O.2     1  UNL1       -0.2463
      4 N         139.9293  140.6142  168.8064 N.ar    1  UNL1       -0.2765
      5 C         139.5027  140.7975  170.2327 C.3     1  UNL1        0.1352
      6 C         141.1264  141.2423  168.1566 C.ar    1  UNL1        0.0989
      7 C         142.1819  142.1701  168.6811 C.ar    1  UNL1        0.1175
      8 N         143.2817  142.6425  167.7770 N.ar    1  UNL1       -0.2422
      9 C         143.3260  142.1871  166.3485 C.ar    1  UNL1        0.0850
     10 C         144.4258  142.6596  165.4445 C.ar    1  UNL1        0.0488
     11 C         144.4701  142.2042  164.0160 C.ar    1  UNL1        0.1417
     12 F         145.5698  142.6766  163.1119 F       1  UNL1       -0.2041
     13 C         143.4145  141.2763  163.4915 C.ar    1  UNL1        0.0313
     14 C         142.3148  140.8039  164.3955 C.ar    1  UNL1        0.0053
     15 C         142.2705  141.2593  165.8240 C.ar    1  UNL1        0.0352
     16 C         141.1707  140.7869  166.7281 C.ar    1  UNL1        0.0826
     17 C         143.4588  140.8210  162.0630 C.ar    1  UNL1        0.0483
     18 C         142.9269  141.7077  160.9763 C.ar    1  UNL1        0.0087
     19 C         142.9712  141.2523  159.5477 C.ar    1  UNL1        0.0579
     20 C         143.5474  139.9102  159.2059 C.ar    1  UNL1        0.2268
     21 N         144.0793  139.0235  160.2926 N.ar    1  UNL1       -0.1832
     22 C         144.0350  139.4789  161.7211 C.ar    1  UNL1        0.2248
     23 F         144.5669  138.5923  162.8078 F       1  UNL1       -0.1831
     24 O         143.5917  139.4548  157.7774 O.3     1  UNL1       -0.4601
     25 C         142.5517  138.5055  157.2603 C.3     1  UNL1        0.2085
     26 C         142.6724  137.0365  157.5388 C.3     1  UNL1        0.0647
     27 C         143.1658  136.1083  156.4689 C.3     1  UNL1        0.0760
     28 N         142.8446  134.6448  156.5390 N.3     1  UNL1       -0.2702
     29 C         141.8370  134.0521  155.5990 C.3     1  UNL1        0.0897
     30 C         143.5310  133.7738  157.5491 C.3     1  UNL1        0.0897
     31 C         139.1744  138.2286  163.3785 C.3     1  UNL1        0.1191
     32 C         138.7589  139.5065  164.0452 C.3     1  UNL1        0.0524
     33 C         139.6585  139.1945  165.2041 C.3     1  UNL1        0.0947
     34 C         140.0741  137.9165  164.5375 C.3     1  UNL1        0.0524
     35 C         139.3595  138.0848  160.7911 C.3     1  UNL1        0.1740
     36 O         138.8320  137.5457  162.0876 O.3     1  UNL1       -0.3534
@<TRIPOS>BOND
     1    35    36    1
     2    31    36    1
     3    31    32    1
     4    32    33    1
     5    33     1    1
     6     1     2   ar
     7     2     3    2
     8     2     4   ar
     9     4     5    1
    10     4     6   ar
    11     6     7   ar
    12     7     8   ar
    13     8     9   ar
    14     9    10   ar
    15    10    11   ar
    16    11    12    1
    17    11    13   ar
    18    13    17    1
    19    17    18   ar
    20    18    19   ar
    21    19    20   ar
    22    20    24    1
    23    24    25    1
    24    25    26    1
    25    26    27    1
    26    27    28    1
    27    28    29    1
    28    28    30    1
    29    20    21   ar
    30    21    22   ar
    31    22    23    1
    32    13    14   ar
    33    14    15   ar
    34    15    16   ar
    35    33    34    1
    36    34    31    1
    37    16     1   ar
    38    16     6   ar
    39    15     9   ar
    40    22    17   ar
@<TRIPOS>MOLECULE
*****
 36 40 0 0 0
SMALL
GASTEIGER

@<TRIPOS>ATOM
      1 N         142.8300  142.7383  160.3128 N.ar    1  UNL1       -0.2815
      2 C         143.3296  143.0366  158.9303 C.ar    1  UNL1        0.3316
      3 O         144.4547  142.3351  158.2289 O.2     1  UNL1       -0.2463
      4 N         142.5064  144.1595  158.3723 N.ar    1  UNL1       -0.2765
      5 C         142.6638  144.7781  157.0149 C.3     1  UNL1        0.1352
      6 C         141.4981  144.5552  159.4099 C.ar    1  UNL1        0.0989
      7 C         140.4237  145.6019  159.4176 C.ar    1  UNL1        0.1175
      8 N         139.5493  145.7702  160.6247 N.ar    1  UNL1       -0.2422
      9 C         139.7493  144.8918  161.8241 C.ar    1  UNL1        0.0850
     10 C         138.8749  145.0602  163.0312 C.ar    1  UNL1        0.0488
     11 C         139.0749  144.1818  164.2306 C.ar    1  UNL1        0.1417
     12 F         138.2005  144.3501  165.4376 F       1  UNL1       -0.2041
     13 C         140.1493  143.1351  164.2228 C.ar    1  UNL1        0.0313
     14 C         141.0237  142.9668  163.0157 C.ar    1  UNL1        0.0053
     15 C         140.8237  143.8452  161.8164 C.ar    1  UNL1        0.0352
     16 C         141.6981  143.6769  160.6093 C.ar    1  UNL1        0.0826
     17 C         140.3494  142.2567  165.4221 C.ar    1  UNL1        0.0483
     18 C         141.6136  142.3576  166.2232 C.ar    1  UNL1        0.0087
     19 C         141.8136  141.4792  167.4225 C.ar    1  UNL1        0.0579
     20 C         140.7494  140.5000  167.8209 C.ar    1  UNL1        0.2268
     21 N         139.4852  140.3992  167.0198 N.ar    1  UNL1       -0.1832
     22 C         139.2852  141.2775  165.8205 C.ar    1  UNL1        0.2248
     23 F         138.0211  141.1767  165.0195 F       1  UNL1       -0.1831
     24 O         140.9494  139.6216  169.0202 O.3     1  UNL1       -0.4601
     25 C         142.1537  139.8091  169.8947 C.3     1  UNL1        0.2085
     26 C         142.0320  140.5598  171.1877 C.3     1  UNL1        0.0647
     27 C         141.1341  141.7580  171.2777 C.3     1  UNL1        0.0760
     28 N         141.5278  143.0421  170.6098 N.3     1  UNL1       -0.2702
     29 C         142.9602  143.4873  170.6257 C.3     1  UNL1        0.0897
     30 C         140.4892  143.8809  169.9261 C.3     1  UNL1        0.0897
     31 C         144.1285  140.1981  162.5434 C.3     1  UNL1        0.1191
     32 C         144.5841  141.5585  162.1054 C.3     1  UNL1        0.0524
     33 C         143.3679  141.6862  161.2368 C.3     1  UNL1        0.0947
     34 C         142.9123  140.3257  161.6748 C.3     1  UNL1        0.0524
     35 C         144.1820  139.0741  164.8852 C.3     1  UNL1        0.1740
     36 O         144.6664  139.1460  163.4674 O.3     1  UNL1       -0.3534
@<TRIPOS>BOND
     1    35    36    1
     2    31    36    1
     3    31    32    1
     4    32    33    1
     5    33     1    1
     6     1     2   ar
     7     2     3    2
     8     2     4   ar
     9     4     5    1
    10     4     6   ar
    11     6     7   ar
    12     7     8   ar
    13     8     9   ar
    14     9    10   ar
    15    10    11   ar
    16    11    12    1
    17    11    13   ar
    18    13    17    1
    19    17    18   ar
    20    18    19   ar
    21    19    20   ar
    22    20    24    1
    23    24    25    1
    24    25    26    1
    25    26    27    1
    26    27    28    1
    27    28    29    1
    28    28    30    1
    29    20    21   ar
    30    21    22   ar
    31    22    23    1
    32    13    14   ar
    33    14    15   ar
    34    15    16   ar
    35    33    34    1
    36    34    31    1
    37    16     1   ar
    38    16     6   ar
    39    15     9   ar
    40    22    17   ar
@<TRIPOS>MOLECULE
*****
 36 40 0 0 0
SMALL
GASTEIGER

@<TRIPOS>ATOM
      1 N         141.0940  143.6362  160.4809 N.ar    1  UNL1       -0.2815
      2 C         140.9900  144.4651  159.2350 C.ar    1  UNL1        0.3316
      3 O         141.7815  145.7023  158.9305 O.2     1  UNL1       -0.2463
      4 N         139.9553  143.8395  158.3473 N.ar    1  UNL1       -0.2765
      5 C         139.5306  144.3413  156.9990 C.3     1  UNL1        0.1352
      6 C         139.4200  142.6240  159.0444 C.ar    1  UNL1        0.0989
      7 C         138.3826  141.6154  158.6488 C.ar    1  UNL1        0.1175
      8 N         138.0490  140.4812  159.5719 N.ar    1  UNL1       -0.2422
      9 C         138.7528  140.3555  160.8906 C.ar    1  UNL1        0.0850
     10 C         138.4191  139.2212  161.8137 C.ar    1  UNL1        0.0488
     11 C         139.1229  139.0956  163.1324 C.ar    1  UNL1        0.1417
     12 F         138.7893  137.9614  164.0555 F       1  UNL1       -0.2041
     13 C         140.1603  140.1043  163.5280 C.ar    1  UNL1        0.0313
     14 C         140.4939  141.2385  162.6049 C.ar    1  UNL1        0.0053
     15 C         139.7901  141.3641  161.2862 C.ar    1  UNL1        0.0352
     16 C         140.1237  142.4984  160.3631 C.ar    1  UNL1        0.0826
     17 C         140.8640  139.9786  164.8467 C.ar    1  UNL1        0.0483
     18 C         142.0807  139.1097  164.9677 C.ar    1  UNL1        0.0087
     19 C         142.7845  138.9840  166.2863 C.ar    1  UNL1        0.0579
     20 C         142.2716  139.7274  167.4840 C.ar    1  UNL1        0.2268
     21 N         141.0549  140.5963  167.3630 N.ar    1  UNL1       -0.1832
     22 C         140.3512  140.7219  166.0443 C.ar    1  UNL1        0.2248
     23 F         139.1345  141.5909  165.9233 F       1  UNL1       -0.1831
     24 O         142.9753  139.6017  168.8027 O.3     1  UNL1       -0.4601
     25 C         142.1859  139.3497  170.0531 C.3     1  UNL1        0.2085
     26 C         142.0294  140.4381  171.0734 C.3     1  UNL1        0.0647
     27 C         141.0177  141.5250  170.8613 C.3     1  UNL1        0.0760
     28 N         141.4632  142.8899  170.4270 N.3     1  UNL1       -0.2702
     29 C         142.9082  143.2774  170.5363 C.3     1  UNL1        0.0897
     30 C         140.4637  143.8673  169.8832 C.3     1  UNL1        0.0897
     31 C         143.3005  144.2706  163.2815 C.3     1  UNL1        0.1191
     32 C         141.8923  144.6520  162.9330 C.3     1  UNL1        0.0524
     33 C         142.0079  143.8990  161.6409 C.3     1  UNL1        0.0947
     34 C         143.4163  143.5176  161.9893 C.3     1  UNL1        0.0524
     35 C         144.5009  143.4444  165.4323 C.3     1  UNL1        0.1740
     36 O         144.2144  144.5335  164.4415 O.3     1  UNL1       -0.3534
@<TRIPOS>BOND
     1    35    36    1
     2    31    36    1
     3    31    32    1
     4    32    33    1
     5    33     1    1
     6     1     2   ar
     7     2     3    2
     8     2     4   ar
     9     4     5    1
    10     4     6   ar
    11     6     7   ar
    12     7     8   ar
    13     8     9   ar
    14     9    10   ar
    15    10    11   ar
    16    11    12    1
    17    11    13   ar
    18    13    17    1
    19    17    18   ar
    20    18    19   ar
    21    19    20   ar
    22    20    24    1
    23    24    25    1
    24    25    26    1
    25    26    27    1
    26    27    28    1
    27    28    29    1
    28    28    30    1
    29    20    21   ar
    30    21    22   ar
    31    22    23    1
    32    13    14   ar
    33    14    15   ar
    34    15    16   ar
    35    33    34    1
    36    34    31    1
    37    16     1   ar
    38    16     6   ar
    39    15     9   ar
    40    22    17   ar
@<TRIPOS>MOLECULE
*****
 36 40 0 0 0
SMALL
GASTEIGER

@<TRIPOS>ATOM
      1 N         142.4772  141.3352  167.1214 N.ar    1  UNL1       -0.2815
      2 C         142.6979  141.9719  168.4615 C.ar    1  UNL1        0.3316
      3 O         143.8662  142.8292  168.8487 O.2     1  UNL1       -0.2463
      4 N         141.5451  141.6007  169.3465 N.ar    1  UNL1       -0.2765
      5 C         141.3581  142.0216  170.7740 C.3     1  UNL1        0.1352
      6 C         140.6119  140.7346  168.5533 C.ar    1  UNL1        0.0989
      7 C         139.3121  140.0741  168.9056 C.ar    1  UNL1        0.1175
      8 N         138.5883  139.2496  167.8827 N.ar    1  UNL1       -0.2422
      9 C         139.1645  139.0855  166.5075 C.ar    1  UNL1        0.0850
     10 C         138.4407  138.2610  165.4846 C.ar    1  UNL1        0.0488
     11 C         139.0168  138.0969  164.1094 C.ar    1  UNL1        0.1417
     12 F         138.2931  137.2724  163.0865 F       1  UNL1       -0.2041
     13 C         140.3167  138.7574  163.7571 C.ar    1  UNL1        0.0313
     14 C         141.0405  139.5819  164.7800 C.ar    1  UNL1        0.0053
     15 C         140.4643  139.7460  166.1552 C.ar    1  UNL1        0.0352
     16 C         141.1880  140.5705  167.1781 C.ar    1  UNL1        0.0826
     17 C         140.8929  138.5933  162.3819 C.ar    1  UNL1        0.0483
     18 C         142.2231  137.9241  162.2010 C.ar    1  UNL1        0.0087
     19 C         142.7992  137.7600  160.8258 C.ar    1  UNL1        0.0579
     20 C         142.0451  138.2652  159.6316 C.ar    1  UNL1        0.2268
     21 N         140.7150  138.9344  159.8125 N.ar    1  UNL1       -0.1832
     22 C         140.1388  139.0985  161.1877 C.ar    1  UNL1        0.2248
     23 F         138.8087  139.7677  161.3687 F       1  UNL1       -0.1831
     24 O         142.6213  138.1011  158.2564 O.3     1  UNL1       -0.4601
     25 C         143.1286  139.2981  157.5080 C.3     1  UNL1        0.2085
     26 C         142.1690  140.1817  156.7675 C.3     1  UNL1        0.0647
     27 C         142.2462  141.6713  156.9257 C.3     1  UNL1        0.0760
     28 N         142.8196  142.2637  158.1788 N.3     1  UNL1       -0.2702
     29 C         144.2195  142.8027  158.1811 C.3     1  UNL1        0.0897
     30 C         141.9933  142.3172  159.4295 C.3     1  UNL1        0.0897
     31 C         144.6717  141.5979  164.2527 C.3     1  UNL1        0.1191
     32 C         143.9657  142.5786  165.1414 C.3     1  UNL1        0.0524
     33 C         143.3862  141.4441  165.9332 C.3     1  UNL1        0.0947
     34 C         144.0922  140.4633  165.0444 C.3     1  UNL1        0.0524
     35 C         145.0179  142.0600  161.7196 C.3     1  UNL1        0.1740
     36 O         145.5806  141.7068  163.0644 O.3     1  UNL1       -0.3534
@<TRIPOS>BOND
     1    35    36    1
     2    31    36    1
     3    31    32    1
     4    32    33    1
     5    33     1    1
     6     1     2   ar
     7     2     3    2
     8     2     4   ar
     9     4     5    1
    10     4     6   ar
    11     6     7   ar
    12     7     8   ar
    13     8     9   ar
    14     9    10   ar
    15    10    11   ar
    16    11    12    1
    17    11    13   ar
    18    13    17    1
    19    17    18   ar
    20    18    19   ar
    21    19    20   ar
    22    20    24    1
    23    24    25    1
    24    25    26    1
    25    26    27    1
    26    27    28    1
    27    28    29    1
    28    28    30    1
    29    20    21   ar
    30    21    22   ar
    31    22    23    1
    32    13    14   ar
    33    14    15   ar
    34    15    16   ar
    35    33    34    1
    36    34    31    1
    37    16     1   ar
    38    16     6   ar
    39    15     9   ar
    40    22    17   ar
@<TRIPOS>MOLECULE
*****
 36 40 0 0 0
SMALL
GASTEIGER

@<TRIPOS>ATOM
      1 N         140.1575  140.1147  166.8639 N.ar    1  UNL1       -0.2815
      2 C         139.6152  140.0595  168.2614 C.ar    1  UNL1        0.3316
      3 O         138.4067  139.2917  168.7085 O.2     1  UNL1       -0.2463
      4 N         140.4938  140.9068  169.1332 N.ar    1  UNL1       -0.2765
      5 C         140.3181  141.1352  170.6053 C.3     1  UNL1        0.1352
      6 C         141.5790  141.4858  168.2746 C.ar    1  UNL1        0.0989
      7 C         142.7295  142.3955  168.5886 C.ar    1  UNL1        0.1175
      8 N         143.6721  142.8156  167.5002 N.ar    1  UNL1       -0.2422
      9 C         143.4643  142.3260  166.0976 C.ar    1  UNL1        0.0850
     10 C         144.4070  142.7462  165.0091 C.ar    1  UNL1        0.0488
     11 C         144.1991  142.2566  163.6066 C.ar    1  UNL1        0.1417
     12 F         145.1418  142.6767  162.5181 F       1  UNL1       -0.2041
     13 C         143.0485  141.3469  163.2926 C.ar    1  UNL1        0.0313
     14 C         142.1059  140.9267  164.3810 C.ar    1  UNL1        0.0053
     15 C         142.3137  141.4163  165.7836 C.ar    1  UNL1        0.0352
     16 C         141.3711  140.9962  166.8721 C.ar    1  UNL1        0.0826
     17 C         142.8407  140.8573  161.8900 C.ar    1  UNL1        0.0483
     18 C         141.7548  141.4503  161.0418 C.ar    1  UNL1        0.0087
     19 C         141.5470  140.9608  159.6393 C.ar    1  UNL1        0.0579
     20 C         142.4249  139.8781  159.0850 C.ar    1  UNL1        0.2268
     21 N         143.5107  139.2851  159.9331 N.ar    1  UNL1       -0.1832
     22 C         143.7185  139.7747  161.3357 C.ar    1  UNL1        0.2248
     23 F         144.8043  139.1817  162.1839 F       1  UNL1       -0.1831
     24 O         142.2171  139.3886  157.6824 O.3     1  UNL1       -0.4601
     25 C         142.6220  140.2468  156.5207 C.3     1  UNL1        0.2085
     26 C         144.0160  140.7952  156.4433 C.3     1  UNL1        0.0647
     27 C         144.2521  142.2683  156.5981 C.3     1  UNL1        0.0760
     28 N         143.9658  142.9402  157.9083 N.3     1  UNL1       -0.2702
     29 C         144.8099  142.6320  159.1094 C.3     1  UNL1        0.0897
     30 C         142.8355  143.9202  158.0174 C.3     1  UNL1        0.0897
     31 C         138.7785  138.4179  163.9771 C.3     1  UNL1        0.1191
     32 C         139.8695  138.1190  164.9623 C.3     1  UNL1        0.0524
     33 C         139.5863  139.4118  165.6682 C.3     1  UNL1        0.0947
     34 C         138.4953  139.7108  164.6830 C.3     1  UNL1        0.0524
     35 C         138.6522  138.1002  161.4016 C.3     1  UNL1        0.1740
     36 O         138.2074  137.7150  162.7814 O.3     1  UNL1       -0.3534
@<TRIPOS>BOND
     1    35    36    1
     2    31    36    1
     3    31    32    1
     4    32    33    1
     5    33     1    1
     6     1     2   ar
     7     2     3    2
     8     2     4   ar
     9     4     5    1
    10     4     6   ar
    11     6     7   ar
    12     7     8   ar
    13     8     9   ar
    14     9    10   ar
    15    10    11   ar
    16    11    12    1
    17    11    13   ar
    18    13    17    1
    19    17    18   ar
    20    18    19   ar
    21    19    20   ar
    22    20    24    1
    23    24    25    1
    24    25    26    1
    25    26    27    1
    26    27    28    1
    27    28    29    1
    28    28    30    1
    29    20    21   ar
    30    21    22   ar
    31    22    23    1
    32    13    14   ar
    33    14    15   ar
    34    15    16   ar
    35    33    34    1
    36    34    31    1
    37    16     1   ar
    38    16     6   ar
    39    15     9   ar
    40    22    17   ar
@<TRIPOS>MOLECULE
*****
 36 40 0 0 0
SMALL
GASTEIGER

@<TRIPOS>ATOM
      1 N         139.8690  140.3588  166.6584 N.ar    1  UNL1       -0.2815
      2 C         139.3917  139.8769  167.9963 C.ar    1  UNL1        0.3316
      3 O         138.1625  139.0557  168.2506 O.2     1  UNL1       -0.2463
      4 N         140.3596  140.3603  169.0353 N.ar    1  UNL1       -0.2765
      5 C         140.2682  140.1075  170.5110 C.3     1  UNL1        0.1352
      6 C         141.4350  141.1410  168.3395 C.ar    1  UNL1        0.0989
      7 C         142.6511  141.8526  168.8538 C.ar    1  UNL1        0.1175
      8 N         143.5641  142.5632  167.8991 N.ar    1  UNL1       -0.2422
      9 C         143.2608  142.5623  166.4300 C.ar    1  UNL1        0.0850
     10 C         144.1738  143.2729  165.4753 C.ar    1  UNL1        0.0488
     11 C         143.8706  143.2720  164.0063 C.ar    1  UNL1        0.1417
     12 F         144.7835  143.9826  163.0516 F       1  UNL1       -0.2041
     13 C         142.6543  142.5603  163.4920 C.ar    1  UNL1        0.0313
     14 C         141.7414  141.8497  164.4467 C.ar    1  UNL1        0.0053
     15 C         142.0447  141.8507  165.9157 C.ar    1  UNL1        0.0352
     16 C         141.1318  141.1400  166.8705 C.ar    1  UNL1        0.0826
     17 C         142.3511  142.5593  162.0230 C.ar    1  UNL1        0.0483
     18 C         142.3660  141.2709  161.2549 C.ar    1  UNL1        0.0087
     19 C         142.0627  141.2699  159.7859 C.ar    1  UNL1        0.0579
     20 C         141.7446  142.5574  159.0849 C.ar    1  UNL1        0.2268
     21 N         141.7298  143.8457  159.8529 N.ar    1  UNL1       -0.1832
     22 C         142.0330  143.8467  161.3220 C.ar    1  UNL1        0.2248
     23 F         142.0182  145.1350  162.0900 F       1  UNL1       -0.1831
     24 O         141.4414  142.5564  157.6159 O.3     1  UNL1       -0.4601
     25 C         140.1018  143.0211  157.1263 C.3     1  UNL1        0.2085
     26 C         138.8931  142.8822  158.0037 C.3     1  UNL1        0.0647
     27 C         137.7041  142.1035  157.5245 C.3     1  UNL1        0.0760
     28 N         137.2633  142.2115  156.0948 N.3     1  UNL1       -0.2702
     29 C         136.7729  143.5237  155.5583 C.3     1  UNL1        0.0897
     30 C         137.3129  141.0075  155.2016 C.3     1  UNL1        0.0897
     31 C         138.2557  139.7439  163.4750 C.3     1  UNL1        0.1191
     32 C         138.1593  140.8114  164.5243 C.3     1  UNL1        0.0524
     33 C         139.2007  140.1041  165.3398 C.3     1  UNL1        0.0947
     34 C         139.2972  139.0365  164.2905 C.3     1  UNL1        0.0524
     35 C         138.1073  140.1472  160.9128 C.3     1  UNL1        0.1740
     36 O         137.5875  139.4892  162.1565 O.3     1  UNL1       -0.3534
@<TRIPOS>BOND
     1    35    36    1
     2    31    36    1
     3    31    32    1
     4    32    33    1
     5    33     1    1
     6     1     2   ar
     7     2     3    2
     8     2     4   ar
     9     4     5    1
    10     4     6   ar
    11     6     7   ar
    12     7     8   ar
    13     8     9   ar
    14     9    10   ar
    15    10    11   ar
    16    11    12    1
    17    11    13   ar
    18    13    17    1
    19    17    18   ar
    20    18    19   ar
    21    19    20   ar
    22    20    24    1
    23    24    25    1
    24    25    26    1
    25    26    27    1
    26    27    28    1
    27    28    29    1
    28    28    30    1
    29    20    21   ar
    30    21    22   ar
    31    22    23    1
    32    13    14   ar
    33    14    15   ar
    34    15    16   ar
    35    33    34    1
    36    34    31    1
    37    16     1   ar
    38    16     6   ar
    39    15     9   ar
    40    22    17   ar
@<TRIPOS>MOLECULE
*****
 36 40 0 0 0
SMALL
GASTEIGER

@<TRIPOS>ATOM
      1 N         139.8488  139.8410  166.5588 N.ar    1  UNL1       -0.2815
      2 C         139.0270  139.7112  167.8070 C.ar    1  UNL1        0.3316
      3 O         137.7882  138.8802  167.9646 O.2     1  UNL1       -0.2463
      4 N         139.6616  140.5583  168.8698 N.ar    1  UNL1       -0.2765
      5 C         139.1688  140.7232  170.2769 C.3     1  UNL1        0.1352
      6 C         140.8755  141.2117  168.2786 C.ar    1  UNL1        0.0989
      7 C         141.8905  142.1529  168.8563 C.ar    1  UNL1        0.1175
      8 N         143.0212  142.6509  168.0056 N.ar    1  UNL1       -0.2422
      9 C         143.1368  142.2076  166.5773 C.ar    1  UNL1        0.0850
     10 C         144.2676  142.7056  165.7267 C.ar    1  UNL1        0.0488
     11 C         144.3832  142.2623  164.2983 C.ar    1  UNL1        0.1417
     12 F         145.5139  142.7602  163.4477 F       1  UNL1       -0.2041
     13 C         143.3682  141.3209  163.7207 C.ar    1  UNL1        0.0313
     14 C         142.2375  140.8230  164.5713 C.ar    1  UNL1        0.0053
     15 C         142.1219  141.2663  165.9996 C.ar    1  UNL1        0.0352
     16 C         140.9912  140.7683  166.8503 C.ar    1  UNL1        0.0826
     17 C         143.4839  140.8776  162.2924 C.ar    1  UNL1        0.0483
     18 C         142.9499  141.7460  161.1919 C.ar    1  UNL1        0.0087
     19 C         143.0656  141.3027  159.7636 C.ar    1  UNL1        0.0579
     20 C         143.7152  139.9909  159.4357 C.ar    1  UNL1        0.2268
     21 N         144.2491  139.1226  160.5361 N.ar    1  UNL1       -0.1832
     22 C         144.1334  139.5659  161.9645 C.ar    1  UNL1        0.2248
     23 F         144.6673  138.6976  163.0648 F       1  UNL1       -0.1831
     24 O         143.8309  139.5476  158.0074 O.3     1  UNL1       -0.4601
     25 C         144.0472  140.5610  156.9228 C.3     1  UNL1        0.2085
     26 C         145.3927  141.2018  156.7527 C.3     1  UNL1        0.0647
     27 C         146.2067  140.9221  155.5243 C.3     1  UNL1        0.0760
     28 N         146.6899  142.0566  154.6703 N.3     1  UNL1       -0.2702
     29 C         148.1464  142.1721  154.3304 C.3     1  UNL1        0.0897
     30 C         145.7167  143.0756  154.1561 C.3     1  UNL1        0.0897
     31 C         139.1903  138.2031  163.3969 C.3     1  UNL1        0.1191
     32 C         138.8780  139.5497  163.9792 C.3     1  UNL1        0.0524
     33 C         139.5760  139.1626  165.2491 C.3     1  UNL1        0.0947
     34 C         139.8884  137.8159  164.6668 C.3     1  UNL1        0.0524
     35 C         138.4317  138.3247  160.9150 C.3     1  UNL1        0.1740
     36 O         138.9175  137.5247  162.0872 O.3     1  UNL1       -0.3534
@<TRIPOS>BOND
     1    35    36    1
     2    31    36    1
     3    31    32    1
     4    32    33    1
     5    33     1    1
     6     1     2   ar
     7     2     3    2
     8     2     4   ar
     9     4     5    1
    10     4     6   ar
    11     6     7   ar
    12     7     8   ar
    13     8     9   ar
    14     9    10   ar
    15    10    11   ar
    16    11    12    1
    17    11    13   ar
    18    13    17    1
    19    17    18   ar
    20    18    19   ar
    21    19    20   ar
    22    20    24    1
    23    24    25    1
    24    25    26    1
    25    26    27    1
    26    27    28    1
    27    28    29    1
    28    28    30    1
    29    20    21   ar
    30    21    22   ar
    31    22    23    1
    32    13    14   ar
    33    14    15   ar
    34    15    16   ar
    35    33    34    1
    36    34    31    1
    37    16     1   ar
    38    16     6   ar
    39    15     9   ar
    40    22    17   ar
@<TRIPOS>MOLECULE
*****
 36 40 0 0 0
SMALL
GASTEIGER

@<TRIPOS>ATOM
      1 N         139.9272  140.3172  166.7326 N.ar    1  UNL1       -0.2815
      2 C         139.4440  139.9137  168.0941 C.ar    1  UNL1        0.3316
      3 O         138.2223  139.0950  168.3892 O.2     1  UNL1       -0.2463
      4 N         140.3970  140.4728  169.1086 N.ar    1  UNL1       -0.2765
      5 C         140.2956  140.3112  170.5965 C.3     1  UNL1        0.1352
      6 C         141.4692  141.2218  168.3742 C.ar    1  UNL1        0.0989
      7 C         142.6723  141.9789  168.8528 C.ar    1  UNL1        0.1175
      8 N         143.5851  142.6399  167.8630 N.ar    1  UNL1       -0.2422
      9 C         143.2948  142.5438  166.3945 C.ar    1  UNL1        0.0850
     10 C         144.2077  143.2048  165.4047 C.ar    1  UNL1        0.0488
     11 C         143.9174  143.1087  163.9362 C.ar    1  UNL1        0.1417
     12 F         144.8302  143.7697  162.9463 F       1  UNL1       -0.2041
     13 C         142.7141  142.3515  163.4575 C.ar    1  UNL1        0.0313
     14 C         141.8013  141.6905  164.4474 C.ar    1  UNL1        0.0053
     15 C         142.0917  141.7866  165.9159 C.ar    1  UNL1        0.0352
     16 C         141.1789  141.1256  166.9057 C.ar    1  UNL1        0.0826
     17 C         142.4238  142.2554  161.9890 C.ar    1  UNL1        0.0483
     18 C         143.2326  141.3353  161.1233 C.ar    1  UNL1        0.0087
     19 C         142.9422  141.2392  159.6548 C.ar    1  UNL1        0.0579
     20 C         141.8431  142.0631  159.0521 C.ar    1  UNL1        0.2268
     21 N         141.0345  142.9831  159.9178 N.ar    1  UNL1       -0.1832
     22 C         141.3248  143.0792  161.3863 C.ar    1  UNL1        0.2248
     23 F         140.5161  143.9993  162.2520 F       1  UNL1       -0.1831
     24 O         141.5528  141.9670  157.5836 O.3     1  UNL1       -0.4601
     25 C         141.2202  140.6391  156.9702 C.3     1  UNL1        0.2085
     26 C         140.0359  139.8612  157.4624 C.3     1  UNL1        0.0647
     27 C         140.2168  138.4620  157.9719 C.3     1  UNL1        0.0760
     28 N         141.4434  137.6819  157.6021 N.3     1  UNL1       -0.2702
     29 C         142.6510  137.7170  158.4913 C.3     1  UNL1        0.0897
     30 C         141.4625  136.8666  156.3432 C.3     1  UNL1        0.0897
     31 C         138.3492  139.4858  163.5810 C.3     1  UNL1        0.1191
     32 C         139.3721  138.8301  164.4606 C.3     1  UNL1        0.0524
     33 C         139.2736  139.9728  165.4272 C.3     1  UNL1        0.0947
     34 C         138.2507  140.6286  164.5476 C.3     1  UNL1        0.0524
     35 C         138.2909  139.6275  160.9875 C.3     1  UNL1        0.1740
     36 O         137.6956  139.1414  162.2756 O.3     1  UNL1       -0.3534
@<TRIPOS>BOND
     1    35    36    1
     2    31    36    1
     3    31    32    1
     4    32    33    1
     5    33     1    1
     6     1     2   ar
     7     2     3    2
     8     2     4   ar
     9     4     5    1
    10     4     6   ar
    11     6     7   ar
    12     7     8   ar
    13     8     9   ar
    14     9    10   ar
    15    10    11   ar
    16    11    12    1
    17    11    13   ar
    18    13    17    1
    19    17    18   ar
    20    18    19   ar
    21    19    20   ar
    22    20    24    1
    23    24    25    1
    24    25    26    1
    25    26    27    1
    26    27    28    1
    27    28    29    1
    28    28    30    1
    29    20    21   ar
    30    21    22   ar
    31    22    23    1
    32    13    14   ar
    33    14    15   ar
    34    15    16   ar
    35    33    34    1
    36    34    31    1
    37    16     1   ar
    38    16     6   ar
    39    15     9   ar
    40    22    17   ar
