@<TRIPOS>MOLECULE
*****
 35 39 0 0 0
SMALL
GASTEIGER

@<TRIPOS>ATOM
      1 N         140.3065  139.1769  160.2196 N.ar    1  UNL1       -0.2342
      2 N         140.3728  138.7152  161.6452 N.ar    1  UNL1       -0.1679
      3 C         139.7034  139.7508  162.4993 C.ar    1  UNL1        0.1065
      4 C         139.2235  140.8525  161.6015 C.ar    1  UNL1        0.0860
      5 C         138.4952  142.1328  161.8850 C.ar    1  UNL1        0.1316
      6 N         138.1224  142.4875  163.2939 N.pl3   1  UNL1       -0.3425
      7 N         138.1397  143.0584  160.7594 N.ar    1  UNL1       -0.2093
      8 C         138.5125  142.7037  159.3505 C.ar    1  UNL1        0.2014
      9 N         139.2408  141.4234  159.0670 N.ar    1  UNL1       -0.2050
     10 C         139.5963  140.4978  160.1926 C.ar    1  UNL1        0.1653
     11 H         138.3558  141.8800  164.0327 H       1  UNL1        0.1437
     12 H         137.6444  143.3279  163.4800 H       1  UNL1        0.1437
     13 C         139.5791  136.9340  155.5892 C.2     1  UNL1        0.2492
     14 O         138.1196  137.2744  155.6536 O.2     1  UNL1       -0.2699
     15 N         140.4907  137.3245  156.7146 N.am    1  UNL1       -0.2741
     16 C         141.9501  136.9841  156.6501 C.3     1  UNL1        0.0938
     17 C         142.8617  137.3747  157.7755 C.3     1  UNL1        0.0236
     18 C         142.3138  138.1056  158.9653 C.3     1  UNL1        0.0279
     19 C         140.8544  138.4460  159.0298 C.3     1  UNL1        0.1266
     20 C         139.9428  138.0554  157.9043 C.3     1  UNL1        0.1180
     21 C         139.6580  136.5585  153.0196 C.2     1  UNL1        0.0048
     22 C         140.1269  136.2031  154.3994 C.2     1  UNL1        0.0579
     23 C         139.5422  139.6946  163.9896 C.ar    1  UNL1        0.0197
     24 C         140.5859  140.3009  164.8802 C.ar    1  UNL1        0.0047
     25 C         140.4247  140.2448  166.3705 C.ar    1  UNL1        0.0375
     26 C         139.2199  139.5823  166.9701 C.ar    1  UNL1        0.1453
     27 C         138.1763  138.9761  166.0795 C.ar    1  UNL1        0.0375
     28 C         138.3375  139.0323  164.5892 C.ar    1  UNL1        0.0047
     29 O         139.0587  139.5262  168.4604 O.3     1  UNL1       -0.4535
     30 C         139.9851  140.3069  169.3448 C.ar    1  UNL1        0.1453
     31 C         139.6376  141.7112  169.7412 C.ar    1  UNL1        0.0375
     32 C         140.5641  142.4920  170.6257 C.ar    1  UNL1        0.0031
     33 C         141.8380  141.8683  171.1138 C.ar    1  UNL1        0.0002
     34 C         142.1854  140.4640  170.7174 C.ar    1  UNL1        0.0031
     35 C         141.2590  139.6833  169.8330 C.ar    1  UNL1        0.0375
@<TRIPOS>BOND
     1    21    22    2
     2    22    13    1
     3    13    14    2
     4    13    15   am
     5    15    16    1
     6    16    17    1
     7    17    18    1
     8    18    19    1
     9    19     1    1
    10     1     2   ar
    11     2     3   ar
    12     3    23    1
    13    23    24   ar
    14    24    25   ar
    15    25    26   ar
    16    26    29    1
    17    29    30    1
    18    30    31   ar
    19    31    32   ar
    20    32    33   ar
    21    33    34   ar
    22    34    35   ar
    23    26    27   ar
    24    27    28   ar
    25     3     4   ar
    26     4     5   ar
    27     5     6    1
    28     5     7   ar
    29     7     8   ar
    30     8     9   ar
    31     9    10   ar
    32    19    20    1
    33    20    15    1
    34    10     1   ar
    35    28    23   ar
    36    10     4   ar
    37    35    30   ar
    38     6    11    1
    39     6    12    1
@<TRIPOS>MOLECULE
*****
 35 39 0 0 0
SMALL
GASTEIGER

@<TRIPOS>ATOM
      1 N         143.2866  142.9652  159.6826 N.ar    1  UNL1       -0.2342
      2 N         143.7676  142.5105  161.0286 N.ar    1  UNL1       -0.1679
      3 C         142.9366  143.1949  162.0732 C.ar    1  UNL1        0.1065
      4 C         141.9421  144.0725  161.3727 C.ar    1  UNL1        0.0860
      5 C         140.8675  144.9826  161.8894 C.ar    1  UNL1        0.1316
      6 N         140.6512  145.1245  163.3669 N.pl3   1  UNL1       -0.3425
      7 N         140.0092  145.7507  160.9285 N.ar    1  UNL1       -0.2093
      8 C         140.2255  145.6087  159.4510 C.ar    1  UNL1        0.2014
      9 N         141.3001  144.6987  158.9343 N.ar    1  UNL1       -0.2050
     10 C         142.1584  143.9306  159.8952 C.ar    1  UNL1        0.1653
     11 H         141.2145  144.6204  163.9975 H       1  UNL1        0.1437
     12 H         139.9458  145.7218  163.7060 H       1  UNL1        0.1437
     13 C         147.3335  142.2859  156.4948 C.2     1  UNL1        0.2492
     14 O         148.2557  142.8151  157.5529 O.2     1  UNL1       -0.2699
     15 N         145.8607  142.1911  156.7627 N.am    1  UNL1       -0.2741
     16 C         144.9384  141.6620  155.7047 C.3     1  UNL1        0.0938
     17 C         143.4656  141.5673  155.9726 C.3     1  UNL1        0.0236
     18 C         142.9150  142.0017  157.2986 C.3     1  UNL1        0.0279
     19 C         143.8372  142.5308  158.3566 C.3     1  UNL1        0.1266
     20 C         145.3101  142.6255  158.0887 C.3     1  UNL1        0.1180
     21 C         149.3628  141.6701  154.9939 C.2     1  UNL1        0.0048
     22 C         147.8840  141.8515  155.1689 C.2     1  UNL1        0.0579
     23 C         143.0757  143.0305  163.5576 C.ar    1  UNL1        0.0197
     24 C         144.1621  143.7569  164.2942 C.ar    1  UNL1        0.0047
     25 C         144.3012  143.5925  165.7786 C.ar    1  UNL1        0.0375
     26 C         143.3540  142.7018  166.5266 C.ar    1  UNL1        0.1453
     27 C         142.2677  141.9755  165.7901 C.ar    1  UNL1        0.0375
     28 C         142.1286  142.1399  164.3057 C.ar    1  UNL1        0.0047
     29 O         143.4932  142.5374  168.0111 O.3     1  UNL1       -0.4535
     30 C         142.4475  141.7897  168.7840 C.ar    1  UNL1        0.1453
     31 C         141.2008  142.4925  169.2330 C.ar    1  UNL1        0.0375
     32 C         140.1551  141.7446  170.0060 C.ar    1  UNL1        0.0031
     33 C         140.3563  140.2939  170.3300 C.ar    1  UNL1        0.0002
     34 C         141.6031  139.5911  169.8810 C.ar    1  UNL1        0.0031
     35 C         142.6486  140.3389  169.1081 C.ar    1  UNL1        0.0375
@<TRIPOS>BOND
     1    21    22    2
     2    22    13    1
     3    13    14    2
     4    13    15   am
     5    15    16    1
     6    16    17    1
     7    17    18    1
     8    18    19    1
     9    19     1    1
    10     1     2   ar
    11     2     3   ar
    12     3    23    1
    13    23    24   ar
    14    24    25   ar
    15    25    26   ar
    16    26    29    1
    17    29    30    1
    18    30    31   ar
    19    31    32   ar
    20    32    33   ar
    21    33    34   ar
    22    34    35   ar
    23    26    27   ar
    24    27    28   ar
    25     3     4   ar
    26     4     5   ar
    27     5     6    1
    28     5     7   ar
    29     7     8   ar
    30     8     9   ar
    31     9    10   ar
    32    19    20    1
    33    20    15    1
    34    10     1   ar
    35    28    23   ar
    36    10     4   ar
    37    35    30   ar
    38     6    11    1
    39     6    12    1
@<TRIPOS>MOLECULE
*****
 35 39 0 0 0
SMALL
GASTEIGER

@<TRIPOS>ATOM
      1 N         139.4446  140.5707  160.0797 N.ar    1  UNL1       -0.2342
      2 N         138.9131  140.7852  161.4658 N.ar    1  UNL1       -0.1679
      3 C         139.7124  139.9321  162.4058 C.ar    1  UNL1        0.1065
      4 C         140.7378  139.1905  161.6005 C.ar    1  UNL1        0.0860
      5 C         141.8008  138.2068  161.9906 C.ar    1  UNL1        0.1316
      6 N         141.9663  137.8121  163.4282 N.pl3   1  UNL1       -0.3425
      7 N         142.6984  137.6177  160.9430 N.ar    1  UNL1       -0.2093
      8 C         142.5329  138.0124  159.5054 C.ar    1  UNL1        0.2014
      9 N         141.4698  138.9961  159.1153 N.ar    1  UNL1       -0.2050
     10 C         140.5723  139.5852  160.1629 C.ar    1  UNL1        0.1653
     11 H         141.3772  138.1987  164.1158 H       1  UNL1        0.1437
     12 H         142.6641  137.1664  163.6842 H       1  UNL1        0.1437
     13 C         135.8179  141.0168  156.3853 C.2     1  UNL1        0.2492
     14 O         135.0190  139.9279  157.0381 O.2     1  UNL1       -0.2699
     15 N         137.1240  141.4497  156.9824 N.am    1  UNL1       -0.2741
     16 C         137.9229  142.5386  156.3296 C.3     1  UNL1        0.0938
     17 C         139.2290  142.9714  156.9268 C.3     1  UNL1        0.0236
     18 C         139.7362  142.3155  158.1768 C.3     1  UNL1        0.0279
     19 C         138.9374  141.2267  158.8297 C.3     1  UNL1        0.1266
     20 C         137.6312  140.7938  158.2324 C.3     1  UNL1        0.1180
     21 C         134.9447  140.8365  153.9449 C.2     1  UNL1        0.0048
     22 C         135.3107  141.6727  155.1353 C.2     1  UNL1        0.0579
     23 C         139.5200  139.8373  163.8904 C.ar    1  UNL1        0.0197
     24 C         138.6781  138.7388  164.4690 C.ar    1  UNL1        0.0047
     25 C         138.4857  138.6440  165.9536 C.ar    1  UNL1        0.0375
     26 C         139.1352  139.6477  166.8596 C.ar    1  UNL1        0.1453
     27 C         139.9770  140.7461  166.2810 C.ar    1  UNL1        0.0375
     28 C         140.1694  140.8409  164.7964 C.ar    1  UNL1        0.0047
     29 O         138.9428  139.5529  168.3442 O.3     1  UNL1       -0.4535
     30 C         139.8966  140.2481  169.2698 C.ar    1  UNL1        0.1453
     31 C         141.2536  139.6628  169.5267 C.ar    1  UNL1        0.0375
     32 C         142.2074  140.3581  170.4524 C.ar    1  UNL1        0.0031
     33 C         141.8041  141.6388  171.1213 C.ar    1  UNL1        0.0002
     34 C         140.4471  142.2241  170.8644 C.ar    1  UNL1        0.0031
     35 C         139.4934  141.5288  169.9387 C.ar    1  UNL1        0.0375
@<TRIPOS>BOND
     1    21    22    2
     2    22    13    1
     3    13    14    2
     4    13    15   am
     5    15    16    1
     6    16    17    1
     7    17    18    1
     8    18    19    1
     9    19     1    1
    10     1     2   ar
    11     2     3   ar
    12     3    23    1
    13    23    24   ar
    14    24    25   ar
    15    25    26   ar
    16    26    29    1
    17    29    30    1
    18    30    31   ar
    19    31    32   ar
    20    32    33   ar
    21    33    34   ar
    22    34    35   ar
    23    26    27   ar
    24    27    28   ar
    25     3     4   ar
    26     4     5   ar
    27     5     6    1
    28     5     7   ar
    29     7     8   ar
    30     8     9   ar
    31     9    10   ar
    32    19    20    1
    33    20    15    1
    34    10     1   ar
    35    28    23   ar
    36    10     4   ar
    37    35    30   ar
    38     6    11    1
    39     6    12    1
@<TRIPOS>MOLECULE
*****
 35 39 0 0 0
SMALL
GASTEIGER

@<TRIPOS>ATOM
      1 N         142.3156  139.1035  160.0046 N.ar    1  UNL1       -0.2342
      2 N         142.1126  138.5843  161.3972 N.ar    1  UNL1       -0.1679
      3 C         142.8070  139.5166  162.3452 C.ar    1  UNL1        0.1065
      4 C         143.4391  140.6120  161.5385 C.ar    1  UNL1        0.0860
      5 C         144.2520  141.8088  161.9342 C.ar    1  UNL1        0.1316
      6 N         144.5557  142.0642  163.3808 N.pl3   1  UNL1       -0.3425
      7 N         144.7611  142.7504  160.8834 N.ar    1  UNL1       -0.2093
      8 C         144.4574  142.4950  159.4369 C.ar    1  UNL1        0.2014
      9 N         143.6445  141.2981  159.0411 N.ar    1  UNL1       -0.2050
     10 C         143.1354  140.3566  160.0919 C.ar    1  UNL1        0.1653
     11 H         144.2215  141.4462  164.0705 H       1  UNL1        0.1437
     12 H         145.0892  142.8498  163.6405 H       1  UNL1        0.1437
     13 C         143.1727  136.7166  155.4694 C.2     1  UNL1        0.2492
     14 O         144.6507  136.7720  155.7196 O.2     1  UNL1       -0.2699
     15 N         142.2195  137.2856  156.4780 N.am    1  UNL1       -0.2741
     16 C         140.7415  137.2303  156.2279 C.3     1  UNL1        0.0938
     17 C         139.7883  137.7994  157.2366 C.3     1  UNL1        0.0236
     18 C         140.3130  138.4237  158.4955 C.3     1  UNL1        0.0279
     19 C         141.7909  138.4791  158.7457 C.3     1  UNL1        0.1266
     20 C         142.7442  137.9100  157.7370 C.3     1  UNL1        0.1180
     21 C         142.4876  134.6034  154.1221 C.2     1  UNL1        0.0048
     22 C         142.6480  136.0923  154.2105 C.2     1  UNL1        0.0579
     23 C         142.8600  139.3780  163.8378 C.ar    1  UNL1        0.0197
     24 C         141.7118  139.8556  164.6767 C.ar    1  UNL1        0.0047
     25 C         141.7648  139.7170  166.1693 C.ar    1  UNL1        0.0375
     26 C         142.9660  139.1007  166.8231 C.ar    1  UNL1        0.1453
     27 C         144.1141  138.6231  165.9843 C.ar    1  UNL1        0.0375
     28 C         144.0611  138.7618  164.4917 C.ar    1  UNL1        0.0047
     29 O         143.0190  138.9621  168.3158 O.3     1  UNL1       -0.4535
     30 C         142.3922  140.0084  169.1888 C.ar    1  UNL1        0.1453
     31 C         141.1122  139.7128  169.9128 C.ar    1  UNL1        0.0375
     32 C         140.4854  140.7593  170.7859 C.ar    1  UNL1        0.0031
     33 C         141.1387  142.1013  170.9350 C.ar    1  UNL1        0.0002
     34 C         142.4188  142.3969  170.2110 C.ar    1  UNL1        0.0031
     35 C         143.0455  141.3505  169.3380 C.ar    1  UNL1        0.0375
@<TRIPOS>BOND
     1    21    22    2
     2    22    13    1
     3    13    14    2
     4    13    15   am
     5    15    16    1
     6    16    17    1
     7    17    18    1
     8    18    19    1
     9    19     1    1
    10     1     2   ar
    11     2     3   ar
    12     3    23    1
    13    23    24   ar
    14    24    25   ar
    15    25    26   ar
    16    26    29    1
    17    29    30    1
    18    30    31   ar
    19    31    32   ar
    20    32    33   ar
    21    33    34   ar
    22    34    35   ar
    23    26    27   ar
    24    27    28   ar
    25     3     4   ar
    26     4     5   ar
    27     5     6    1
    28     5     7   ar
    29     7     8   ar
    30     8     9   ar
    31     9    10   ar
    32    19    20    1
    33    20    15    1
    34    10     1   ar
    35    28    23   ar
    36    10     4   ar
    37    35    30   ar
    38     6    11    1
    39     6    12    1
@<TRIPOS>MOLECULE
*****
 35 39 0 0 0
SMALL
GASTEIGER

@<TRIPOS>ATOM
      1 N         142.1800  137.0077  156.7921 N.ar    1  UNL1       -0.2342
      2 N         141.0885  137.6437  157.6008 N.ar    1  UNL1       -0.1679
      3 C         141.3910  139.1083  157.7171 C.ar    1  UNL1        0.1065
      4 C         142.6695  139.3774  156.9802 C.ar    1  UNL1        0.0860
      5 C         143.4527  140.6369  156.7560 C.ar    1  UNL1        0.1316
      6 N         142.9651  141.9351  157.3277 N.pl3   1  UNL1       -0.3425
      7 N         144.7235  140.5982  155.9600 N.ar    1  UNL1       -0.2093
      8 C         145.2110  139.2999  155.3882 C.ar    1  UNL1        0.2014
      9 N         144.4279  138.0405  155.6125 N.ar    1  UNL1       -0.2050
     10 C         143.1571  138.0792  156.4085 C.ar    1  UNL1        0.1653
     11 H         142.1311  141.9606  157.8501 H       1  UNL1        0.1437
     12 H         143.4792  142.7618  157.1805 H       1  UNL1        0.1437
     13 C         144.4230  132.3600  157.3978 C.2     1  UNL1        0.2492
     14 O         145.3498  132.9410  158.4241 O.2     1  UNL1       -0.2699
     15 N         143.3988  133.2313  156.7332 N.am    1  UNL1       -0.2741
     16 C         142.4719  132.6503  155.7069 C.3     1  UNL1        0.0938
     17 C         141.4478  133.5217  155.0424 C.3     1  UNL1        0.0236
     18 C         141.3505  134.9742  155.4041 C.3     1  UNL1        0.0279
     19 C         142.2773  135.5553  156.4303 C.3     1  UNL1        0.1266
     20 C         143.3015  134.6838  157.0949 C.3     1  UNL1        0.1180
     21 C         144.0992  129.8590  158.0228 C.2     1  UNL1        0.0048
     22 C         144.5203  130.9075  157.0361 C.2     1  UNL1        0.0579
     23 C         140.5609  140.1252  158.4429 C.ar    1  UNL1        0.0197
     24 C         139.4531  140.8388  157.7260 C.ar    1  UNL1        0.0047
     25 C         138.6230  141.8557  158.4518 C.ar    1  UNL1        0.0375
     26 C         138.9005  142.1591  159.8944 C.ar    1  UNL1        0.1453
     27 C         140.0082  141.4455  160.6111 C.ar    1  UNL1        0.0375
     28 C         140.8384  140.4286  159.8854 C.ar    1  UNL1        0.0047
     29 O         138.0703  143.1760  160.6201 O.3     1  UNL1       -0.4535
     30 C         138.3014  143.4284  162.0805 C.ar    1  UNL1        0.1453
     31 C         137.6217  142.5710  163.1066 C.ar    1  UNL1        0.0375
     32 C         137.8528  142.8235  164.5671 C.ar    1  UNL1        0.0031
     33 C         138.7635  143.9335  165.0014 C.ar    1  UNL1        0.0002
     34 C         139.4432  144.7909  163.9753 C.ar    1  UNL1        0.0031
     35 C         139.2121  144.5384  162.5149 C.ar    1  UNL1        0.0375
@<TRIPOS>BOND
     1    21    22    2
     2    22    13    1
     3    13    14    2
     4    13    15   am
     5    15    16    1
     6    16    17    1
     7    17    18    1
     8    18    19    1
     9    19     1    1
    10     1     2   ar
    11     2     3   ar
    12     3    23    1
    13    23    24   ar
    14    24    25   ar
    15    25    26   ar
    16    26    29    1
    17    29    30    1
    18    30    31   ar
    19    31    32   ar
    20    32    33   ar
    21    33    34   ar
    22    34    35   ar
    23    26    27   ar
    24    27    28   ar
    25     3     4   ar
    26     4     5   ar
    27     5     6    1
    28     5     7   ar
    29     7     8   ar
    30     8     9   ar
    31     9    10   ar
    32    19    20    1
    33    20    15    1
    34    10     1   ar
    35    28    23   ar
    36    10     4   ar
    37    35    30   ar
    38     6    11    1
    39     6    12    1
@<TRIPOS>MOLECULE
*****
 35 39 0 0 0
SMALL
GASTEIGER

@<TRIPOS>ATOM
      1 N         142.9070  142.3149  159.8327 N.ar    1  UNL1       -0.2342
      2 N         143.4065  141.9150  161.1893 N.ar    1  UNL1       -0.1679
      3 C         142.7998  142.8437  162.1989 C.ar    1  UNL1        0.1065
      4 C         141.9252  143.8176  161.4663 C.ar    1  UNL1        0.0860
      5 C         141.0771  144.9597  161.9419 C.ar    1  UNL1        0.1316
      6 N         141.0109  145.2865  163.4044 N.pl3   1  UNL1       -0.3425
      7 N         140.2953  145.7750  160.9550 N.ar    1  UNL1       -0.2093
      8 C         140.3616  145.4482  159.4926 C.ar    1  UNL1        0.2014
      9 N         141.2097  144.3061  159.0170 N.ar    1  UNL1       -0.2050
     10 C         141.9915  143.4908  160.0038 C.ar    1  UNL1        0.1653
     11 H         141.5241  144.7514  164.0521 H       1  UNL1        0.1437
     12 H         140.4542  146.0362  163.7165 H       1  UNL1        0.1437
     13 C         143.0160  138.0847  156.8171 C.2     1  UNL1        0.2492
     14 O         142.3629  137.2898  157.9087 O.2     1  UNL1       -0.2699
     15 N         143.3153  139.5397  157.0252 N.am    1  UNL1       -0.2741
     16 C         143.9684  140.3347  155.9336 C.3     1  UNL1        0.0938
     17 C         144.2676  141.7897  156.1418 C.3     1  UNL1        0.0236
     18 C         143.9138  142.4498  157.4414 C.3     1  UNL1        0.0279
     19 C         143.2608  141.6549  158.5330 C.3     1  UNL1        0.1266
     20 C         142.9615  140.1998  158.3249 C.3     1  UNL1        0.1180
     21 C         144.1236  136.1277  155.5157 C.2     1  UNL1        0.0048
     22 C         143.3698  137.4247  155.5174 C.2     1  UNL1        0.0579
     23 C         143.0276  142.8053  163.6811 C.ar    1  UNL1        0.0197
     24 C         144.2067  143.5155  164.2773 C.ar    1  UNL1        0.0047
     25 C         144.4345  143.4771  165.7594 C.ar    1  UNL1        0.0375
     26 C         143.4832  142.7286  166.6453 C.ar    1  UNL1        0.1453
     27 C         142.3041  142.0185  166.0491 C.ar    1  UNL1        0.0375
     28 C         142.0764  142.0569  164.5669 C.ar    1  UNL1        0.0047
     29 O         143.7110  142.6902  168.1274 O.3     1  UNL1       -0.4535
     30 C         142.6904  142.0582  169.0268 C.ar    1  UNL1        0.1453
     31 C         141.5651  142.8817  169.5795 C.ar    1  UNL1        0.0375
     32 C         140.5445  142.2495  170.4790 C.ar    1  UNL1        0.0031
     33 C         140.6494  140.7939  170.8258 C.ar    1  UNL1        0.0002
     34 C         141.7747  139.9704  170.2731 C.ar    1  UNL1        0.0031
     35 C         142.7952  140.6026  169.3736 C.ar    1  UNL1        0.0375
@<TRIPOS>BOND
     1    21    22    2
     2    22    13    1
     3    13    14    2
     4    13    15   am
     5    15    16    1
     6    16    17    1
     7    17    18    1
     8    18    19    1
     9    19     1    1
    10     1     2   ar
    11     2     3   ar
    12     3    23    1
    13    23    24   ar
    14    24    25   ar
    15    25    26   ar
    16    26    29    1
    17    29    30    1
    18    30    31   ar
    19    31    32   ar
    20    32    33   ar
    21    33    34   ar
    22    34    35   ar
    23    26    27   ar
    24    27    28   ar
    25     3     4   ar
    26     4     5   ar
    27     5     6    1
    28     5     7   ar
    29     7     8   ar
    30     8     9   ar
    31     9    10   ar
    32    19    20    1
    33    20    15    1
    34    10     1   ar
    35    28    23   ar
    36    10     4   ar
    37    35    30   ar
    38     6    11    1
    39     6    12    1
@<TRIPOS>MOLECULE
*****
 35 39 0 0 0
SMALL
GASTEIGER

@<TRIPOS>ATOM
      1 N         139.9398  141.1945  160.1884 N.ar    1  UNL1       -0.2342
      2 N         139.4323  141.3887  161.5865 N.ar    1  UNL1       -0.1679
      3 C         140.0259  140.3142  162.4486 C.ar    1  UNL1        0.1065
      4 C         140.9004  139.4560  161.5833 C.ar    1  UNL1        0.0860
      5 C         141.7382  138.2494  161.8868 C.ar    1  UNL1        0.1316
      6 N         141.7914  137.7054  163.2837 N.pl3   1  UNL1       -0.3425
      7 N         142.5228  137.5868  160.7935 N.ar    1  UNL1       -0.2093
      8 C         142.4696  138.1308  159.3967 C.ar    1  UNL1        0.2014
      9 N         141.6318  139.3374  159.0931 N.ar    1  UNL1       -0.2050
     10 C         140.8472  140.0000  160.1864 C.ar    1  UNL1        0.1653
     11 H         141.2764  138.1402  164.0013 H       1  UNL1        0.1437
     12 H         142.3413  136.9134  163.4829 H       1  UNL1        0.1437
     13 C         140.7213  145.4744  157.3474 C.2     1  UNL1        0.2492
     14 O         141.7920  145.9126  158.3021 O.2     1  UNL1       -0.2699
     15 N         139.9905  144.1854  157.5803 N.am    1  UNL1       -0.2741
     16 C         138.9197  143.7471  156.6256 C.3     1  UNL1        0.0938
     17 C         138.1890  142.4580  156.8586 C.3     1  UNL1        0.0236
     18 C         138.5291  141.6072  158.0462 C.3     1  UNL1        0.0279
     19 C         139.5998  142.0453  159.0008 C.3     1  UNL1        0.1266
     20 C         140.3306  143.3345  158.7679 C.3     1  UNL1        0.1180
     21 C         139.2543  147.3120  156.2421 C.2     1  UNL1        0.0048
     22 C         140.3812  146.3253  156.1598 C.2     1  UNL1        0.0579
     23 C         139.7871  140.1303  163.9180 C.ar    1  UNL1        0.0197
     24 C         138.6544  139.2683  164.3916 C.ar    1  UNL1        0.0047
     25 C         138.4156  139.0843  165.8610 C.ar    1  UNL1        0.0375
     26 C         139.3093  139.7624  166.8568 C.ar    1  UNL1        0.1453
     27 C         140.4418  140.6243  166.3831 C.ar    1  UNL1        0.0375
     28 C         140.6807  140.8083  164.9137 C.ar    1  UNL1        0.0047
     29 O         139.0704  139.5784  168.3262 O.3     1  UNL1       -0.4535
     30 C         139.9484  140.2768  169.3218 C.ar    1  UNL1        0.1453
     31 C         139.5184  141.5870  169.9120 C.ar    1  UNL1        0.0375
     32 C         140.3966  142.2854  170.9077 C.ar    1  UNL1        0.0031
     33 C         141.7046  141.6734  171.3132 C.ar    1  UNL1        0.0002
     34 C         142.1346  140.3631  170.7231 C.ar    1  UNL1        0.0031
     35 C         141.2566  139.6648  169.7274 C.ar    1  UNL1        0.0375
@<TRIPOS>BOND
     1    21    22    2
     2    22    13    1
     3    13    14    2
     4    13    15   am
     5    15    16    1
     6    16    17    1
     7    17    18    1
     8    18    19    1
     9    19     1    1
    10     1     2   ar
    11     2     3   ar
    12     3    23    1
    13    23    24   ar
    14    24    25   ar
    15    25    26   ar
    16    26    29    1
    17    29    30    1
    18    30    31   ar
    19    31    32   ar
    20    32    33   ar
    21    33    34   ar
    22    34    35   ar
    23    26    27   ar
    24    27    28   ar
    25     3     4   ar
    26     4     5   ar
    27     5     6    1
    28     5     7   ar
    29     7     8   ar
    30     8     9   ar
    31     9    10   ar
    32    19    20    1
    33    20    15    1
    34    10     1   ar
    35    28    23   ar
    36    10     4   ar
    37    35    30   ar
    38     6    11    1
    39     6    12    1
@<TRIPOS>MOLECULE
*****
 35 39 0 0 0
SMALL
GASTEIGER

@<TRIPOS>ATOM
      1 N         144.4651  141.6459  158.2203 N.ar    1  UNL1       -0.2342
      2 N         144.5750  142.4022  159.5110 N.ar    1  UNL1       -0.1679
      3 C         144.0039  141.5444  160.6009 C.ar    1  UNL1        0.1065
      4 C         143.5411  140.2579  159.9839 C.ar    1  UNL1        0.0860
      5 C         142.8969  139.0375  160.5717 C.ar    1  UNL1        0.1316
      6 N         142.6118  138.9748  162.0431 N.pl3   1  UNL1       -0.3425
      7 N         142.5378  137.8798  159.6882 N.ar    1  UNL1       -0.2093
      8 C         142.8228  137.9425  158.2169 C.ar    1  UNL1        0.2014
      9 N         143.4670  139.1629  157.6291 N.ar    1  UNL1       -0.2050
     10 C         143.8261  140.3206  158.5126 C.ar    1  UNL1        0.1653
     11 H         142.8475  139.7347  162.6230 H       1  UNL1        0.1437
     12 H         142.1890  138.1738  162.4289 H       1  UNL1        0.1437
     13 C         148.2595  142.4321  154.7585 C.2     1  UNL1        0.2492
     14 O         149.2565  141.8575  155.7207 O.2     1  UNL1       -0.2699
     15 N         146.8125  142.5229  155.1428 N.am    1  UNL1       -0.2741
     16 C         145.8155  143.0975  154.1806 C.3     1  UNL1        0.0938
     17 C         144.3684  143.1883  154.5650 C.3     1  UNL1        0.0236
     18 C         143.9183  142.7044  155.9115 C.3     1  UNL1        0.0279
     19 C         144.9152  142.1298  156.8737 C.3     1  UNL1        0.1266
     20 C         146.3624  142.0390  156.4894 C.3     1  UNL1        0.1180
     21 C         150.1705  143.1169  153.1369 C.2     1  UNL1        0.0048
     22 C         148.7096  142.9160  153.4119 C.2     1  UNL1        0.0579
     23 C         143.9118  141.9091  162.0530 C.ar    1  UNL1        0.0197
     24 C         145.0906  141.6964  162.9560 C.ar    1  UNL1        0.0047
     25 C         144.9985  142.0611  164.4081 C.ar    1  UNL1        0.0375
     26 C         143.7276  142.6384  164.9572 C.ar    1  UNL1        0.1453
     27 C         142.5489  142.8511  164.0543 C.ar    1  UNL1        0.0375
     28 C         142.6410  142.4864  162.6022 C.ar    1  UNL1        0.0047
     29 O         143.6355  143.0031  166.4093 O.3     1  UNL1       -0.4535
     30 C         143.2484  141.9647  167.4202 C.ar    1  UNL1        0.1453
     31 C         142.7468  140.6260  166.9660 C.ar    1  UNL1        0.0375
     32 C         142.3597  139.5876  167.9770 C.ar    1  UNL1        0.0031
     33 C         142.4742  139.8880  169.4421 C.ar    1  UNL1        0.0002
     34 C         142.9757  141.2267  169.8963 C.ar    1  UNL1        0.0031
     35 C         143.3628  142.2650  168.8854 C.ar    1  UNL1        0.0375
@<TRIPOS>BOND
     1    21    22    2
     2    22    13    1
     3    13    14    2
     4    13    15   am
     5    15    16    1
     6    16    17    1
     7    17    18    1
     8    18    19    1
     9    19     1    1
    10     1     2   ar
    11     2     3   ar
    12     3    23    1
    13    23    24   ar
    14    24    25   ar
    15    25    26   ar
    16    26    29    1
    17    29    30    1
    18    30    31   ar
    19    31    32   ar
    20    32    33   ar
    21    33    34   ar
    22    34    35   ar
    23    26    27   ar
    24    27    28   ar
    25     3     4   ar
    26     4     5   ar
    27     5     6    1
    28     5     7   ar
    29     7     8   ar
    30     8     9   ar
    31     9    10   ar
    32    19    20    1
    33    20    15    1
    34    10     1   ar
    35    28    23   ar
    36    10     4   ar
    37    35    30   ar
    38     6    11    1
    39     6    12    1
@<TRIPOS>MOLECULE
*****
 35 39 0 0 0
SMALL
GASTEIGER

@<TRIPOS>ATOM
      1 N         139.6219  140.2113  163.2756 N.ar    1  UNL1       -0.2342
      2 N         140.1093  139.1624  162.3205 N.ar    1  UNL1       -0.1679
      3 C         140.2662  139.8003  160.9720 C.ar    1  UNL1        0.1065
      4 C         139.8759  141.2435  161.0936 C.ar    1  UNL1        0.0860
      5 C         139.8316  142.3591  160.0920 C.ar    1  UNL1        0.1316
      6 N         140.2298  142.1050  158.6683 N.pl3   1  UNL1       -0.3425
      7 N         139.3891  143.7288  160.5140 N.ar    1  UNL1       -0.2093
      8 C         138.9909  143.9828  161.9376 C.ar    1  UNL1        0.2014
      9 N         139.0352  142.8672  162.9393 N.ar    1  UNL1       -0.2050
     10 C         139.4777  141.4975  162.5173 C.ar    1  UNL1        0.1653
     11 H         140.5202  141.2060  158.3913 H       1  UNL1        0.1437
     12 H         140.2007  142.8372  158.0108 H       1  UNL1        0.1437
     13 C         140.3268  141.5821  168.2378 C.2     1  UNL1        0.2492
     14 O         141.2629  142.6709  167.8041 O.2     1  UNL1       -0.2699
     15 N         139.6825  140.6950  167.2142 N.am    1  UNL1       -0.2741
     16 C         138.7464  139.6062  167.6479 C.3     1  UNL1        0.0938
     17 C         138.1021  138.7191  166.6242 C.3     1  UNL1        0.0236
     18 C         138.3940  138.9208  165.1668 C.3     1  UNL1        0.0279
     19 C         139.3301  140.0096  164.7330 C.3     1  UNL1        0.1266
     20 C         139.9744  140.8967  165.7568 C.3     1  UNL1        0.1180
     21 C         139.7970  142.5655  170.5836 C.2     1  UNL1        0.0048
     22 C         140.0349  141.3804  169.6953 C.2     1  UNL1        0.0579
     23 C         140.7318  139.1152  159.7214 C.ar    1  UNL1        0.0197
     24 C         142.1982  139.0175  159.4212 C.ar    1  UNL1        0.0047
     25 C         142.6638  138.3325  158.1706 C.ar    1  UNL1        0.0375
     26 C         141.6630  137.7451  157.2202 C.ar    1  UNL1        0.1453
     27 C         140.1966  137.8428  157.5204 C.ar    1  UNL1        0.0375
     28 C         139.7310  138.5279  158.7710 C.ar    1  UNL1        0.0047
     29 O         142.1285  137.0601  155.9696 O.3     1  UNL1       -0.4535
     30 C         142.2893  135.5690  155.9468 C.ar    1  UNL1        0.1453
     31 C         143.4813  134.9330  156.5984 C.ar    1  UNL1        0.0375
     32 C         143.6420  133.4418  156.5756 C.ar    1  UNL1        0.0031
     33 C         142.6107  132.5865  155.9011 C.ar    1  UNL1        0.0002
     34 C         141.4187  133.2225  155.2495 C.ar    1  UNL1        0.0031
     35 C         141.2580  134.7136  155.2723 C.ar    1  UNL1        0.0375
@<TRIPOS>BOND
     1    21    22    2
     2    22    13    1
     3    13    14    2
     4    13    15   am
     5    15    16    1
     6    16    17    1
     7    17    18    1
     8    18    19    1
     9    19     1    1
    10     1     2   ar
    11     2     3   ar
    12     3    23    1
    13    23    24   ar
    14    24    25   ar
    15    25    26   ar
    16    26    29    1
    17    29    30    1
    18    30    31   ar
    19    31    32   ar
    20    32    33   ar
    21    33    34   ar
    22    34    35   ar
    23    26    27   ar
    24    27    28   ar
    25     3     4   ar
    26     4     5   ar
    27     5     6    1
    28     5     7   ar
    29     7     8   ar
    30     8     9   ar
    31     9    10   ar
    32    19    20    1
    33    20    15    1
    34    10     1   ar
    35    28    23   ar
    36    10     4   ar
    37    35    30   ar
    38     6    11    1
    39     6    12    1
