@<TRIPOS>MOLECULE
*****
 34 37 0 0 0
SMALL
GASTEIGER

@<TRIPOS>ATOM
      1 C         138.1312  140.4223  162.6113 C.3     1  UNL1        0.1166
      2 N         136.8855  141.1943  162.9307 N.3     1  UNL1       -0.3162
      3 C         139.3948  139.6393  162.8123 C.3     1  UNL1        0.0739
      4 C         140.1744  139.1559  161.6256 C.3     1  UNL1        0.2039
      5 N         139.6905  139.4555  160.2377 N.pl3   1  UNL1       -0.1931
      6 C         138.4270  140.2384  160.0366 C.3     1  UNL1        0.2039
      7 C         137.6474  140.7218  161.2234 C.3     1  UNL1        0.0739
      8 H         136.7773  141.2615  163.9427 H       1  UNL1        0.1192
      9 H         136.0774  140.7152  162.5335 H       1  UNL1        0.1192
     10 C         140.4702  138.9721  159.0509 C.2     1  UNL1        0.3205
     11 N         139.8664  137.9667  158.1157 N.2     1  UNL1        0.0097
     12 C         140.6460  137.4833  156.9290 C.2     1  UNL1        0.4717
     13 N         142.0296  138.0053  156.6773 N.2     1  UNL1        0.0158
     14 C         142.6334  139.0107  157.6125 C.2     1  UNL1        0.3714
     15 N         143.9657  139.6999  157.6210 N.2     1  UNL1       -0.0339
     16 C         144.0093  140.6093  158.8131 C.2     1  UNL1        0.2323
     17 C         142.7041  140.4821  159.5413 C.2     1  UNL1        0.0486
     18 C         141.8538  139.4941  158.7993 C.3     1  UNL1        0.2428
     19 N         138.5442  139.1207  164.8215 N.am    1  UNL1       -0.3012
     20 C         138.1825  140.3908  164.1101 C.2     1  UNL1        0.2352
     21 O         137.8722  141.6292  164.8974 O.2     1  UNL1       -0.2737
     22 H         138.7479  138.3079  164.3048 H       1  UNL1        0.1497
     23 C         137.5293  138.3699  167.0923 C.3     1  UNL1        0.0262
     24 C         138.5956  139.0892  166.3203 C.3     1  UNL1        0.0942
     25 C         139.7131  139.7768  167.0471 C.ar    1  UNL1       -0.0044
     26 C         139.5319  140.1976  168.4755 C.ar    1  UNL1       -0.0014
     27 C         140.6494  140.8852  169.2023 C.ar    1  UNL1        0.0181
     28 C         141.9482  141.1521  168.5007 C.ar    1  UNL1        0.1057
     29 C         142.1294  140.7313  167.0724 C.ar    1  UNL1        0.0181
     30 C         141.0118  140.0436  166.3456 C.ar    1  UNL1       -0.0014
     31 S         143.0657  141.8397  169.2276 S.O2    1  UNL1        0.0104
     32 C         144.1832  142.5273  169.9544 C.3     1  UNL1        0.1816
     33 O         142.7063  141.0986  170.4812 O.2     1  UNL1       -0.1686
     34 O         143.4251  142.5808  167.9740 O.2     1  UNL1       -0.1686
@<TRIPOS>BOND
     1    23    24    1
     2    24    19    1
     3    19    20   am
     4    20    21    2
     5    20     1    1
     6     1     2    1
     7     1     3    1
     8     3     4    1
     9     4     5    1
    10     5    10    1
    11    10    11    2
    12    11    12    1
    13    12    13    2
    14    13    14    1
    15    14    15    2
    16    15    16    1
    17    16    17    2
    18    17    18    1
    19     5     6    1
    20     6     7    1
    21    24    25    1
    22    25    26   ar
    23    26    27   ar
    24    27    28   ar
    25    28    31    1
    26    31    32    1
    27    31    33    2
    28    31    34    2
    29    28    29   ar
    30    29    30   ar
    31     7     1    1
    32    30    25   ar
    33    18    10    1
    34    18    14    1
    35    19    22    1
    36     2     8    1
    37     2     9    1
@<TRIPOS>MOLECULE
*****
 34 37 0 0 0
SMALL
GASTEIGER

@<TRIPOS>ATOM
      1 C         139.9022  138.6377  162.4941 C.3     1  UNL1        0.1166
      2 N         138.7837  137.6395  162.5443 N.3     1  UNL1       -0.3162
      3 C         140.9627  139.5909  162.9597 C.3     1  UNL1        0.0739
      4 C         141.8017  140.3271  161.9578 C.3     1  UNL1        0.2039
      5 N         141.5802  140.1102  160.4901 N.pl3   1  UNL1       -0.1931
      6 C         140.5197  139.1570  160.0245 C.3     1  UNL1        0.2039
      7 C         139.6807  138.4208  161.0265 C.3     1  UNL1        0.0739
      8 H         138.5480  137.4416  163.5167 H       1  UNL1        0.1192
      9 H         139.0761  136.7779  162.0832 H       1  UNL1        0.1192
     10 C         142.4192  140.8464  159.4881 C.2     1  UNL1        0.3205
     11 N         143.4507  140.1088  158.6870 N.2     1  UNL1        0.0097
     12 C         144.2897  140.8450  157.6851 C.2     1  UNL1        0.4717
     13 N         144.0972  142.3190  157.4841 N.2     1  UNL1        0.0158
     14 C         143.0657  143.0567  158.2853 C.2     1  UNL1        0.3714
     15 N         142.6530  144.4986  158.3052 N.2     1  UNL1       -0.0339
     16 C         141.5588  144.6535  159.3195 C.2     1  UNL1        0.2323
     17 C         141.2954  143.3073  159.9264 C.2     1  UNL1        0.0486
     18 C         142.2267  142.3204  159.2872 C.3     1  UNL1        0.2428
     19 N         138.9609  139.5430  164.7400 N.am    1  UNL1       -0.3012
     20 C         139.7353  138.5079  163.9792 C.2     1  UNL1        0.2352
     21 O         140.3428  137.3432  164.7033 O.2     1  UNL1       -0.2737
     22 H         138.5622  140.3075  164.2647 H       1  UNL1        0.1497
     23 C         137.7584  138.4838  166.7850 C.3     1  UNL1        0.0262
     24 C         138.7940  139.4134  166.2251 C.3     1  UNL1        0.0942
     25 C         139.6625  140.2133  167.1501 C.ar    1  UNL1       -0.0044
     26 C         140.8152  141.0016  166.6023 C.ar    1  UNL1       -0.0014
     27 C         141.6837  141.8016  167.5273 C.ar    1  UNL1        0.0181
     28 C         141.3996  141.8132  169.0001 C.ar    1  UNL1        0.1057
     29 C         140.2470  141.0250  169.5479 C.ar    1  UNL1        0.0181
     30 C         139.3784  140.2250  168.6229 C.ar    1  UNL1       -0.0014
     31 S         142.2682  142.6132  169.9251 S.O2    1  UNL1        0.0104
     32 C         143.1368  143.4132  170.8501 C.3     1  UNL1        0.1816
     33 O         143.3409  142.6597  168.8776 O.2     1  UNL1       -0.1686
     34 O         141.1956  142.5668  170.9726 O.2     1  UNL1       -0.1686
@<TRIPOS>BOND
     1    23    24    1
     2    24    19    1
     3    19    20   am
     4    20    21    2
     5    20     1    1
     6     1     2    1
     7     1     3    1
     8     3     4    1
     9     4     5    1
    10     5    10    1
    11    10    11    2
    12    11    12    1
    13    12    13    2
    14    13    14    1
    15    14    15    2
    16    15    16    1
    17    16    17    2
    18    17    18    1
    19     5     6    1
    20     6     7    1
    21    24    25    1
    22    25    26   ar
    23    26    27   ar
    24    27    28   ar
    25    28    31    1
    26    31    32    1
    27    31    33    2
    28    31    34    2
    29    28    29   ar
    30    29    30   ar
    31     7     1    1
    32    30    25   ar
    33    18    10    1
    34    18    14    1
    35    19    22    1
    36     2     8    1
    37     2     9    1
@<TRIPOS>MOLECULE
*****
 34 37 0 0 0
SMALL
GASTEIGER

@<TRIPOS>ATOM
      1 C         140.1742  138.1395  161.2026 C.3     1  UNL1        0.1166
      2 N         138.6962  138.0136  161.4249 N.3     1  UNL1       -0.3162
      3 C         141.6462  138.1624  161.4908 C.3     1  UNL1        0.0739
      4 C         142.6225  138.4383  160.3861 C.3     1  UNL1        0.2039
      5 N         142.1270  138.6913  158.9930 N.pl3   1  UNL1       -0.1931
      6 C         140.6552  138.6683  158.7047 C.3     1  UNL1        0.2039
      7 C         139.6788  138.3925  159.8095 C.3     1  UNL1        0.0739
      8 H         138.5166  137.8061  162.4073 H       1  UNL1        0.1192
      9 H         138.3283  137.2592  160.8453 H       1  UNL1        0.1192
     10 C         143.1035  138.9671  157.8882 C.2     1  UNL1        0.3205
     11 N         143.3139  137.9535  156.8027 N.2     1  UNL1        0.0097
     12 C         144.2902  138.2293  155.6980 C.2     1  UNL1        0.4717
     13 N         145.0564  139.5189  155.6787 N.2     1  UNL1        0.0158
     14 C         144.8460  140.5325  156.7642 C.2     1  UNL1        0.3714
     15 N         145.4529  141.8823  157.0082 N.2     1  UNL1       -0.0339
     16 C         144.8515  142.4407  158.2638 C.2     1  UNL1        0.2323
     17 C         143.8730  141.4360  158.7958 C.2     1  UNL1        0.0486
     18 C         143.8695  140.2566  157.8690 C.3     1  UNL1        0.2428
     19 N         139.3089  138.6689  163.5943 N.am    1  UNL1       -0.3012
     20 C         140.1564  137.8428  162.6728 C.2     1  UNL1        0.2352
     21 O         140.9861  136.7201  163.2215 O.2     1  UNL1       -0.2737
     22 H         138.7643  139.4058  163.2342 H       1  UNL1        0.1497
     23 C         138.3898  137.3007  165.6026 C.3     1  UNL1        0.0262
     24 C         139.2910  138.3723  165.0646 C.3     1  UNL1        0.0942
     25 C         140.1744  139.1472  165.9969 C.ar    1  UNL1       -0.0044
     26 C         141.6648  139.0942  165.8355 C.ar    1  UNL1       -0.0014
     27 C         142.5481  139.8691  166.7677 C.ar    1  UNL1        0.0181
     28 C         141.9411  140.6971  167.8613 C.ar    1  UNL1        0.1057
     29 C         140.4508  140.7502  168.0227 C.ar    1  UNL1        0.0181
     30 C         139.5674  139.9752  167.0905 C.ar    1  UNL1       -0.0014
     31 S         142.8246  141.4721  168.7936 S.O2    1  UNL1        0.0104
     32 C         143.7080  142.2470  169.7258 C.3     1  UNL1        0.1816
     33 O         142.4765  140.5293  169.9071 O.2     1  UNL1       -0.1686
     34 O         143.1727  142.4149  167.6800 O.2     1  UNL1       -0.1686
@<TRIPOS>BOND
     1    23    24    1
     2    24    19    1
     3    19    20   am
     4    20    21    2
     5    20     1    1
     6     1     2    1
     7     1     3    1
     8     3     4    1
     9     4     5    1
    10     5    10    1
    11    10    11    2
    12    11    12    1
    13    12    13    2
    14    13    14    1
    15    14    15    2
    16    15    16    1
    17    16    17    2
    18    17    18    1
    19     5     6    1
    20     6     7    1
    21    24    25    1
    22    25    26   ar
    23    26    27   ar
    24    27    28   ar
    25    28    31    1
    26    31    32    1
    27    31    33    2
    28    31    34    2
    29    28    29   ar
    30    29    30   ar
    31     7     1    1
    32    30    25   ar
    33    18    10    1
    34    18    14    1
    35    19    22    1
    36     2     8    1
    37     2     9    1
@<TRIPOS>MOLECULE
*****
 34 37 0 0 0
SMALL
GASTEIGER

@<TRIPOS>ATOM
      1 C         138.5975  140.9332  162.4380 C.3     1  UNL1        0.1166
      2 N         137.0996  140.9768  162.5035 N.3     1  UNL1       -0.3162
      3 C         140.0263  140.8522  162.8874 C.3     1  UNL1        0.0739
      4 C         141.1339  140.8941  161.8768 C.3     1  UNL1        0.2039
      5 N         140.8128  141.0172  160.4167 N.pl3   1  UNL1       -0.1931
      6 C         139.3840  141.0982  159.9672 C.3     1  UNL1        0.2039
      7 C         138.2764  141.0563  160.9779 C.3     1  UNL1        0.0739
      8 H         136.7998  140.9116  163.4762 H       1  UNL1        0.1192
      9 H         136.7133  140.1944  161.9754 H       1  UNL1        0.1192
     10 C         141.9205  141.0591  159.4061 C.2     1  UNL1        0.3205
     11 N         142.6606  142.3398  159.1572 N.2     1  UNL1        0.0097
     12 C         143.7682  142.3818  158.1467 C.2     1  UNL1        0.4717
     13 N         144.1359  141.1430  157.3849 N.2     1  UNL1        0.0158
     14 C         143.3958  139.8622  157.6338 C.2     1  UNL1        0.3714
     15 N         143.5336  138.4918  157.0399 N.2     1  UNL1       -0.0339
     16 C         142.5111  137.6028  157.6834 C.2     1  UNL1        0.2323
     17 C         141.7413  138.4238  158.6751 C.2     1  UNL1        0.0486
     18 C         142.2881  139.8203  158.6444 C.3     1  UNL1        0.2428
     19 N         139.0157  139.6881  164.6795 N.am    1  UNL1       -0.3012
     20 C         138.3985  140.8254  163.9208 C.2     1  UNL1        0.2352
     21 O         137.5823  141.8547  164.6449 O.2     1  UNL1       -0.2737
     22 H         139.5514  139.0125  164.2042 H       1  UNL1        0.1497
     23 C         137.7382  138.6941  166.7117 C.3     1  UNL1        0.0262
     24 C         138.8167  139.5801  166.1623 C.3     1  UNL1        0.0942
     25 C         139.6962  140.3581  167.0956 C.ar    1  UNL1       -0.0044
     26 C         140.6213  141.4076  166.5544 C.ar    1  UNL1       -0.0014
     27 C         141.5008  142.1856  167.4878 C.ar    1  UNL1        0.0181
     28 C         141.4551  141.9142  168.9623 C.ar    1  UNL1        0.1057
     29 C         140.5301  140.8649  169.5035 C.ar    1  UNL1        0.0181
     30 C         139.6505  140.0867  168.5702 C.ar    1  UNL1       -0.0014
     31 S         142.3347  142.6923  169.8957 S.O2    1  UNL1        0.0104
     32 C         143.2142  143.4704  170.8289 C.3     1  UNL1        0.1816
     33 O         143.4343  142.6729  168.8756 O.2     1  UNL1       -0.1686
     34 O         141.2351  142.7118  170.9157 O.2     1  UNL1       -0.1686
@<TRIPOS>BOND
     1    23    24    1
     2    24    19    1
     3    19    20   am
     4    20    21    2
     5    20     1    1
     6     1     2    1
     7     1     3    1
     8     3     4    1
     9     4     5    1
    10     5    10    1
    11    10    11    2
    12    11    12    1
    13    12    13    2
    14    13    14    1
    15    14    15    2
    16    15    16    1
    17    16    17    2
    18    17    18    1
    19     5     6    1
    20     6     7    1
    21    24    25    1
    22    25    26   ar
    23    26    27   ar
    24    27    28   ar
    25    28    31    1
    26    31    32    1
    27    31    33    2
    28    31    34    2
    29    28    29   ar
    30    29    30   ar
    31     7     1    1
    32    30    25   ar
    33    18    10    1
    34    18    14    1
    35    19    22    1
    36     2     8    1
    37     2     9    1
@<TRIPOS>MOLECULE
*****
 34 37 0 0 0
SMALL
GASTEIGER

@<TRIPOS>ATOM
      1 C         139.8223  138.0577  161.4762 C.3     1  UNL1        0.1166
      2 N         138.3534  137.9998  161.7739 N.3     1  UNL1       -0.3162
      3 C         141.3066  138.0142  161.6890 C.3     1  UNL1        0.0739
      4 C         142.2368  138.2429  160.5349 C.3     1  UNL1        0.2039
      5 N         141.6830  138.5153  159.1677 N.pl3   1  UNL1       -0.1931
      6 C         140.1988  138.5589  158.9547 C.3     1  UNL1        0.2039
      7 C         139.2685  138.3301  160.1090 C.3     1  UNL1        0.0739
      8 H         138.2149  137.8028  162.7651 H       1  UNL1        0.1192
      9 H         137.9225  137.2617  161.2171 H       1  UNL1        0.1192
     10 C         142.6133  138.7441  158.0135 C.2     1  UNL1        0.3205
     11 N         143.1606  140.1159  157.7518 N.2     1  UNL1        0.0097
     12 C         144.0908  140.3447  156.5977 C.2     1  UNL1        0.4717
     13 N         144.4740  139.2016  155.7051 N.2     1  UNL1        0.0158
     14 C         143.9267  137.8298  155.9668 C.2     1  UNL1        0.3714
     15 N         144.1240  136.5195  155.2637 N.2     1  UNL1       -0.0339
     16 C         143.3157  135.4810  155.9834 C.2     1  UNL1        0.2323
     17 C         142.6187  136.1493  157.1312 C.2     1  UNL1        0.0486
     18 C         142.9964  137.6010  157.1210 C.3     1  UNL1        0.2428
     19 N         138.9961  138.5400  163.8916 N.am    1  UNL1       -0.3012
     20 C         139.8661  137.7652  162.9467 C.2     1  UNL1        0.2352
     21 O         140.7798  136.6981  163.4723 O.2     1  UNL1       -0.2737
     22 H         138.3964  139.2404  163.5466 H       1  UNL1        0.1497
     23 C         138.1746  137.1658  165.9378 C.3     1  UNL1        0.0262
     24 C         139.0398  138.2475  165.3622 C.3     1  UNL1        0.0942
     25 C         139.9487  139.0368  166.2571 C.ar    1  UNL1       -0.0044
     26 C         141.4164  139.1127  165.9567 C.ar    1  UNL1       -0.0014
     27 C         142.3253  139.9020  166.8517 C.ar    1  UNL1        0.0181
     28 C         141.7665  140.6154  168.0470 C.ar    1  UNL1        0.1057
     29 C         140.2989  140.5395  168.3475 C.ar    1  UNL1        0.0181
     30 C         139.3899  139.7502  167.4525 C.ar    1  UNL1       -0.0014
     31 S         142.6754  141.4047  168.9420 S.O2    1  UNL1        0.0104
     32 C         143.5844  142.1939  169.8369 C.3     1  UNL1        0.1816
     33 O         143.1451  140.1338  169.5857 O.2     1  UNL1       -0.1686
     34 O         142.2057  142.6755  168.2983 O.2     1  UNL1       -0.1686
@<TRIPOS>BOND
     1    23    24    1
     2    24    19    1
     3    19    20   am
     4    20    21    2
     5    20     1    1
     6     1     2    1
     7     1     3    1
     8     3     4    1
     9     4     5    1
    10     5    10    1
    11    10    11    2
    12    11    12    1
    13    12    13    2
    14    13    14    1
    15    14    15    2
    16    15    16    1
    17    16    17    2
    18    17    18    1
    19     5     6    1
    20     6     7    1
    21    24    25    1
    22    25    26   ar
    23    26    27   ar
    24    27    28   ar
    25    28    31    1
    26    31    32    1
    27    31    33    2
    28    31    34    2
    29    28    29   ar
    30    29    30   ar
    31     7     1    1
    32    30    25   ar
    33    18    10    1
    34    18    14    1
    35    19    22    1
    36     2     8    1
    37     2     9    1
@<TRIPOS>MOLECULE
*****
 34 37 0 0 0
SMALL
GASTEIGER

@<TRIPOS>ATOM
      1 C         138.7633  139.3013  162.8272 C.3     1  UNL1        0.1166
      2 N         139.3644  138.0908  163.4778 N.3     1  UNL1       -0.3162
      3 C         138.0571  140.6160  162.6760 C.3     1  UNL1        0.0739
      4 C         137.8622  141.2103  161.3127 C.3     1  UNL1        0.2039
      5 N         138.3735  140.4899  160.1004 N.pl3   1  UNL1       -0.1931
      6 C         139.0797  139.1752  160.2515 C.3     1  UNL1        0.2039
      7 C         139.2746  138.5809  161.6149 C.3     1  UNL1        0.0739
      8 H         139.2357  138.1485  164.4880 H       1  UNL1        0.1192
      9 H         140.3608  138.0493  163.2638 H       1  UNL1        0.1192
     10 C         138.1786  141.0842  158.7370 C.2     1  UNL1        0.3205
     11 N         137.3119  140.3860  157.7314 N.2     1  UNL1        0.0097
     12 C         137.1170  140.9803  156.3681 C.2     1  UNL1        0.4717
     13 N         137.7888  142.2729  156.0103 N.2     1  UNL1        0.0158
     14 C         138.6556  142.9711  157.0159 C.2     1  UNL1        0.3714
     15 N         139.4401  144.2479  156.9503 N.2     1  UNL1       -0.0339
     16 C         140.1199  144.4426  158.2732 C.2     1  UNL1        0.2323
     17 C         139.7555  143.2862  159.1563 C.2     1  UNL1        0.0486
     18 C         138.8504  142.3768  158.3793 C.3     1  UNL1        0.2428
     19 N         138.8982  138.6487  165.3383 N.am    1  UNL1       -0.3012
     20 C         138.4607  139.6013  164.2654 C.2     1  UNL1        0.2352
     21 O         137.7206  140.8538  164.6307 O.2     1  UNL1       -0.2737
     22 H         139.3840  137.8266  165.0986 H       1  UNL1        0.1497
     23 C         137.3808  138.3560  167.4268 C.3     1  UNL1        0.0262
     24 C         138.5957  138.9487  166.7766 C.3     1  UNL1        0.0942
     25 C         139.5080  139.8413  167.5645 C.ar    1  UNL1       -0.0044
     26 C         140.7151  140.4454  166.9103 C.ar    1  UNL1       -0.0014
     27 C         141.6274  141.3380  167.6982 C.ar    1  UNL1        0.0181
     28 C         141.3326  141.6266  169.1404 C.ar    1  UNL1        0.1057
     29 C         140.1256  141.0225  169.7946 C.ar    1  UNL1        0.0181
     30 C         139.2132  140.1299  169.0067 C.ar    1  UNL1       -0.0014
     31 S         142.2450  142.5192  169.9283 S.O2    1  UNL1        0.0104
     32 C         143.1573  143.4119  170.7163 C.3     1  UNL1        0.1816
     33 O         141.3237  142.4197  171.1078 O.2     1  UNL1       -0.1686
     34 O         143.1663  142.6188  168.7488 O.2     1  UNL1       -0.1686
@<TRIPOS>BOND
     1    23    24    1
     2    24    19    1
     3    19    20   am
     4    20    21    2
     5    20     1    1
     6     1     2    1
     7     1     3    1
     8     3     4    1
     9     4     5    1
    10     5    10    1
    11    10    11    2
    12    11    12    1
    13    12    13    2
    14    13    14    1
    15    14    15    2
    16    15    16    1
    17    16    17    2
    18    17    18    1
    19     5     6    1
    20     6     7    1
    21    24    25    1
    22    25    26   ar
    23    26    27   ar
    24    27    28   ar
    25    28    31    1
    26    31    32    1
    27    31    33    2
    28    31    34    2
    29    28    29   ar
    30    29    30   ar
    31     7     1    1
    32    30    25   ar
    33    18    10    1
    34    18    14    1
    35    19    22    1
    36     2     8    1
    37     2     9    1
@<TRIPOS>MOLECULE
*****
 34 37 0 0 0
SMALL
GASTEIGER

@<TRIPOS>ATOM
      1 C         139.1552  138.8916  162.5099 C.3     1  UNL1        0.1166
      2 N         138.5374  137.5263  162.5738 N.3     1  UNL1       -0.3162
      3 C         139.7831  140.1772  162.9607 C.3     1  UNL1        0.0739
      4 C         140.1673  141.2184  161.9518 C.3     1  UNL1        0.2039
      5 N         139.9237  140.9743  160.4919 N.pl3   1  UNL1       -0.1931
      6 C         139.2958  139.6888  160.0411 C.3     1  UNL1        0.2039
      7 C         138.9115  138.6475  161.0501 C.3     1  UNL1        0.0739
      8 H         138.4861  137.2214  163.5458 H       1  UNL1        0.1192
      9 H         139.1080  136.8697  162.0411 H       1  UNL1        0.1192
     10 C         140.3079  142.0156  159.4830 C.2     1  UNL1        0.3205
     11 N         139.2515  142.8704  158.8478 N.2     1  UNL1        0.0097
     12 C         139.6358  143.9116  157.8389 C.2     1  UNL1        0.4717
     13 N         141.0764  144.0983  157.4651 N.2     1  UNL1        0.0158
     14 C         142.1328  143.2435  158.1002 C.2     1  UNL1        0.3714
     15 N         143.6227  143.1984  157.9319 N.2     1  UNL1       -0.0339
     16 C         144.1592  142.1292  158.8369 C.2     1  UNL1        0.2323
     17 C         143.0009  141.5135  159.5645 C.2     1  UNL1        0.0486
     18 C         141.7486  142.2022  159.1092 C.3     1  UNL1        0.2428
     19 N         138.4288  139.5783  164.9080 N.am    1  UNL1       -0.3012
     20 C         139.1843  138.6617  163.9919 C.2     1  UNL1        0.2352
     21 O         139.9688  137.5153  164.5578 O.2     1  UNL1       -0.2737
     22 H         137.9139  140.3307  164.5365 H       1  UNL1        0.1497
     23 C         137.5479  138.3291  167.0088 C.3     1  UNL1        0.0262
     24 C         138.4578  139.3484  166.3900 C.3     1  UNL1        0.0942
     25 C         139.3969  140.1378  167.2531 C.ar    1  UNL1       -0.0044
     26 C         139.2625  140.0901  168.7464 C.ar    1  UNL1       -0.0014
     27 C         140.2016  140.8795  169.6095 C.ar    1  UNL1        0.0181
     28 C         141.2749  141.7167  168.9793 C.ar    1  UNL1        0.1057
     29 C         141.4093  141.7645  167.4862 C.ar    1  UNL1        0.0181
     30 C         140.4702  140.9750  166.6230 C.ar    1  UNL1       -0.0014
     31 S         142.2140  142.5061  169.8426 S.O2    1  UNL1        0.0104
     32 C         143.1529  143.2955  170.7057 C.3     1  UNL1        0.1816
     33 O         141.2816  142.3429  171.0061 O.2     1  UNL1       -0.1686
     34 O         143.1464  142.6694  168.6790 O.2     1  UNL1       -0.1686
@<TRIPOS>BOND
     1    23    24    1
     2    24    19    1
     3    19    20   am
     4    20    21    2
     5    20     1    1
     6     1     2    1
     7     1     3    1
     8     3     4    1
     9     4     5    1
    10     5    10    1
    11    10    11    2
    12    11    12    1
    13    12    13    2
    14    13    14    1
    15    14    15    2
    16    15    16    1
    17    16    17    2
    18    17    18    1
    19     5     6    1
    20     6     7    1
    21    24    25    1
    22    25    26   ar
    23    26    27   ar
    24    27    28   ar
    25    28    31    1
    26    31    32    1
    27    31    33    2
    28    31    34    2
    29    28    29   ar
    30    29    30   ar
    31     7     1    1
    32    30    25   ar
    33    18    10    1
    34    18    14    1
    35    19    22    1
    36     2     8    1
    37     2     9    1
@<TRIPOS>MOLECULE
*****
 34 37 0 0 0
SMALL
GASTEIGER

@<TRIPOS>ATOM
      1 C         138.8414  142.2338  161.4015 C.3     1  UNL1        0.1166
      2 N         137.6888  143.1903  161.3212 N.3     1  UNL1       -0.3162
      3 C         139.9211  141.3737  161.9884 C.3     1  UNL1        0.0739
      4 C         140.8106  140.5681  161.0886 C.3     1  UNL1        0.2039
      5 N         140.6204  140.6226  159.6016 N.pl3   1  UNL1       -0.1931
      6 C         139.5408  141.4827  159.0146 C.3     1  UNL1        0.2039
      7 C         138.6513  142.2883  159.9146 C.3     1  UNL1        0.0739
      8 H         137.4210  143.4798  162.2619 H       1  UNL1        0.1192
      9 H         136.8979  142.7324  160.8683 H       1  UNL1        0.1192
     10 C         141.5099  139.8170  158.7017 C.2     1  UNL1        0.3205
     11 N         141.0929  138.4424  158.2700 N.2     1  UNL1        0.0097
     12 C         141.9824  137.6368  157.3701 C.2     1  UNL1        0.4717
     13 N         143.2890  138.2059  156.9020 N.2     1  UNL1        0.0158
     14 C         143.7060  139.5805  157.3337 C.2     1  UNL1        0.3714
     15 N         144.9273  140.3988  157.0356 N.2     1  UNL1       -0.0339
     16 C         144.7925  141.7101  157.7513 C.2     1  UNL1        0.2323
     17 C         143.4880  141.7023  158.4917 C.2     1  UNL1        0.0486
     18 C         142.8165  140.3861  158.2336 C.3     1  UNL1        0.2428
     19 N         139.6924  143.2199  163.6494 N.am    1  UNL1       -0.3012
     20 C         138.6313  142.5115  162.8605 C.2     1  UNL1        0.2352
     21 O         137.3603  142.0807  163.5306 O.2     1  UNL1       -0.2737
     22 H         140.5266  143.5026  163.2096 H       1  UNL1        0.1497
     23 C         138.7073  144.7080  165.5376 C.3     1  UNL1        0.0262
     24 C         139.4824  143.4976  165.1085 C.3     1  UNL1        0.0942
     25 C         140.0474  142.5649  166.1384 C.ar    1  UNL1       -0.0044
     26 C         140.3220  141.1334  165.7837 C.ar    1  UNL1       -0.0014
     27 C         140.8871  140.2007  166.8136 C.ar    1  UNL1        0.0181
     28 C         141.1776  140.6994  168.1981 C.ar    1  UNL1        0.1057
     29 C         140.9031  142.1307  168.5528 C.ar    1  UNL1        0.0181
     30 C         140.3380  143.0636  167.5229 C.ar    1  UNL1       -0.0014
     31 S         141.7427  139.7666  169.2280 S.O2    1  UNL1        0.0104
     32 C         142.3077  138.8339  170.2579 C.3     1  UNL1        0.1816
     33 O         140.3945  139.6677  169.8781 O.2     1  UNL1       -0.1686
     34 O         143.0909  139.8656  168.5780 O.2     1  UNL1       -0.1686
@<TRIPOS>BOND
     1    23    24    1
     2    24    19    1
     3    19    20   am
     4    20    21    2
     5    20     1    1
     6     1     2    1
     7     1     3    1
     8     3     4    1
     9     4     5    1
    10     5    10    1
    11    10    11    2
    12    11    12    1
    13    12    13    2
    14    13    14    1
    15    14    15    2
    16    15    16    1
    17    16    17    2
    18    17    18    1
    19     5     6    1
    20     6     7    1
    21    24    25    1
    22    25    26   ar
    23    26    27   ar
    24    27    28   ar
    25    28    31    1
    26    31    32    1
    27    31    33    2
    28    31    34    2
    29    28    29   ar
    30    29    30   ar
    31     7     1    1
    32    30    25   ar
    33    18    10    1
    34    18    14    1
    35    19    22    1
    36     2     8    1
    37     2     9    1
@<TRIPOS>MOLECULE
*****
 34 37 0 0 0
SMALL
GASTEIGER

@<TRIPOS>ATOM
      1 C         141.1015  138.3565  163.3644 C.3     1  UNL1        0.1166
      2 N         141.3367  136.9709  162.8405 N.3     1  UNL1       -0.3162
      3 C         140.6789  139.7952  163.4052 C.3     1  UNL1        0.0739
      4 C         140.8776  140.6001  164.6552 C.3     1  UNL1        0.2039
      5 N         141.4991  139.9664  165.8645 N.pl3   1  UNL1       -0.1931
      6 C         141.9218  138.5277  165.8237 C.3     1  UNL1        0.2039
      7 C         141.7229  137.7228  164.5736 C.3     1  UNL1        0.0739
      8 H         141.0120  136.9127  161.8753 H       1  UNL1        0.1192
      9 H         140.8244  136.2995  163.4126 H       1  UNL1        0.1192
     10 C         141.6979  140.7713  167.1145 C.2     1  UNL1        0.3205
     11 N         142.9104  141.6422  167.2609 N.2     1  UNL1        0.0097
     12 C         143.1092  142.4471  168.5108 C.2     1  UNL1        0.4717
     13 N         142.0954  142.3812  169.6145 N.2     1  UNL1        0.0158
     14 C         140.8830  141.5104  169.4681 C.2     1  UNL1        0.3714
     15 N         139.7220  141.2448  170.3801 N.2     1  UNL1       -0.0339
     16 C         138.8057  140.2756  169.6937 C.2     1  UNL1        0.2323
     17 C         139.4004  139.9423  168.3575 C.2     1  UNL1        0.0486
     18 C         140.6842  140.7054  168.2181 C.3     1  UNL1        0.2428
     19 N         141.1870  139.4937  161.0300 N.am    1  UNL1       -0.3012
     20 C         140.5617  138.5090  161.9732 C.2     1  UNL1        0.2352
     21 O         139.3968  137.6770  161.5252 O.2     1  UNL1       -0.2737
     22 H         141.9516  140.0397  161.3241 H       1  UNL1        0.1497
     23 C         139.7319  140.7883  159.3106 C.3     1  UNL1        0.0262
     24 C         140.6473  139.6463  159.6388 C.3     1  UNL1        0.0942
     25 C         141.0229  138.6568  158.5759 C.ar    1  UNL1       -0.0044
     26 C         142.4275  138.1359  158.4988 C.ar    1  UNL1       -0.0014
     27 C         142.8032  137.1464  157.4359 C.ar    1  UNL1        0.0181
     28 C         141.7743  136.6779  156.4500 C.ar    1  UNL1        0.1057
     29 C         140.3698  137.1988  156.5271 C.ar    1  UNL1        0.0181
     30 C         139.9941  138.1883  157.5900 C.ar    1  UNL1       -0.0014
     31 S         142.1500  135.6884  155.3871 S.O2    1  UNL1        0.0104
     32 C         142.5258  134.6990  154.3242 C.3     1  UNL1        0.1816
     33 O         143.6022  135.9416  155.6647 O.2     1  UNL1       -0.1686
     34 O         140.6979  135.4352  155.1094 O.2     1  UNL1       -0.1686
@<TRIPOS>BOND
     1    23    24    1
     2    24    19    1
     3    19    20   am
     4    20    21    2
     5    20     1    1
     6     1     2    1
     7     1     3    1
     8     3     4    1
     9     4     5    1
    10     5    10    1
    11    10    11    2
    12    11    12    1
    13    12    13    2
    14    13    14    1
    15    14    15    2
    16    15    16    1
    17    16    17    2
    18    17    18    1
    19     5     6    1
    20     6     7    1
    21    24    25    1
    22    25    26   ar
    23    26    27   ar
    24    27    28   ar
    25    28    31    1
    26    31    32    1
    27    31    33    2
    28    31    34    2
    29    28    29   ar
    30    29    30   ar
    31     7     1    1
    32    30    25   ar
    33    18    10    1
    34    18    14    1
    35    19    22    1
    36     2     8    1
    37     2     9    1
