@<TRIPOS>MOLECULE
*****
 35 37 0 0 0
SMALL
GASTEIGER

@<TRIPOS>ATOM
      1 C         142.4116  141.4276  167.2704 C.3     1  UNL1        0.1326
      2 C         143.2494  142.2834  168.1738 C.3     1  UNL1        0.0276
      3 C         142.9928  142.6675  169.6007 C.3     1  UNL1        0.0042
      4 C         141.8351  142.2909  170.4771 C.3     1  UNL1        0.0247
      5 C         140.6480  141.4371  170.1427 C.3     1  UNL1        0.1103
      6 N         140.3255  140.7491  168.8494 N.ar    1  UNL1       -0.2802
      7 C         141.1103  140.7448  167.5712 C.ar    1  UNL1        0.1410
      8 N         140.6034  139.9835  166.3823 N.ar    1  UNL1       -0.2228
      9 C         139.3116  139.2263  166.4717 C.ar    1  UNL1        0.1740
     10 C         138.5267  139.2305  167.7499 C.ar    1  UNL1        0.2130
     11 O         137.2350  138.4734  167.8394 O.3     1  UNL1       -0.5006
     12 C         139.0336  139.9919  168.9388 C.ar    1  UNL1        0.2973
     13 O         138.2487  139.9961  170.2171 O.2     1  UNL1       -0.2636
     14 H         136.9183  137.9978  167.0968 H       1  UNL1        0.2924
     15 C         143.6185  139.9389  165.5163 C.2     1  UNL1        0.3032
     16 O         143.7572  138.8486  166.5370 O.2     1  UNL1       -0.2649
     17 N         142.9458  141.2284  165.8830 N.am    1  UNL1       -0.2654
     18 C         142.8071  142.3187  164.8622 C.3     1  UNL1        0.1157
     19 C         143.9526  138.6596  161.7744 C.3     1  UNL1        0.1154
     20 N         143.4185  138.8588  163.1618 N.am    1  UNL1       -0.2688
     21 C         142.1502  138.1771  163.5823 C.3     1  UNL1        0.1154
     22 C         144.1527  139.7397  164.1288 C.2     1  UNL1        0.3030
     23 O         145.4209  140.4214  163.7083 O.2     1  UNL1       -0.2649
     24 C         138.8047  138.4649  165.2829 C.2     1  UNL1        0.2671
     25 O         138.3739  137.0362  165.4354 O.2     1  UNL1       -0.2684
     26 N         138.7285  139.1321  163.9417 N.am    1  UNL1       -0.2956
     27 H         139.0113  140.0698  163.8416 H       1  UNL1        0.1501
     28 C         138.2215  138.3707  162.7529 C.3     1  UNL1        0.1166
     29 C         138.5374  138.8478  161.3662 C.ar    1  UNL1       -0.0024
     30 C         137.6287  139.8277  160.6851 C.ar    1  UNL1       -0.0003
     31 C         137.9446  140.3048  159.2985 C.ar    1  UNL1        0.0294
     32 C         139.1692  139.8019  158.5931 C.ar    1  UNL1        0.1401
     33 F         139.4850  140.2790  157.2066 F       1  UNL1       -0.2042
     34 C         140.0779  138.8219  159.2743 C.ar    1  UNL1        0.0294
     35 C         139.7619  138.3449  160.6609 C.ar    1  UNL1       -0.0003
@<TRIPOS>BOND
     1    19    20    1
     2    20    21    1
     3    20    22   am
     4    22    23    2
     5    22    15    1
     6    15    16    2
     7    15    17   am
     8    17    18    1
     9     1    17    1
    10     1     2    1
    11     2     3    1
    12     3     4    1
    13     4     5    1
    14     5     6    1
    15     6     7   ar
    16     7     8   ar
    17     8     9   ar
    18     9    24    1
    19    24    25    2
    20    24    26   am
    21    26    28    1
    22    28    29    1
    23    29    30   ar
    24    30    31   ar
    25    31    32   ar
    26    32    33    1
    27    32    34   ar
    28    34    35   ar
    29     9    10   ar
    30    10    11    1
    31    10    12   ar
    32    12    13    2
    33     7     1    1
    34    35    29   ar
    35    12     6   ar
    36    26    27    1
    37    11    14    1
@<TRIPOS>MOLECULE
*****
 35 37 0 0 0
SMALL
GASTEIGER

@<TRIPOS>ATOM
      1 C         140.4302  144.5765  157.8451 C.3     1  UNL1        0.1326
      2 C         140.7402  145.9148  157.2424 C.3     1  UNL1        0.0276
      3 C         140.0153  146.6371  156.1459 C.3     1  UNL1        0.0042
      4 C         138.8012  146.1999  155.3811 C.3     1  UNL1        0.0247
      5 C         138.0123  144.9322  155.5240 C.3     1  UNL1        0.1103
      6 N         138.2426  143.7886  156.4671 N.ar    1  UNL1       -0.2802
      7 C         139.3185  143.6303  157.5000 C.ar    1  UNL1        0.1410
      8 N         139.3685  142.3939  158.3477 N.ar    1  UNL1       -0.2228
      9 C         138.3423  141.3156  158.1624 C.ar    1  UNL1        0.1740
     10 C         137.2662  141.4738  157.1294 C.ar    1  UNL1        0.2130
     11 O         136.2401  140.3956  156.9441 O.3     1  UNL1       -0.5006
     12 C         137.2163  142.7104  156.2817 C.ar    1  UNL1        0.2973
     13 O         136.1402  142.8686  155.2488 O.2     1  UNL1       -0.2636
     14 H         136.2712  139.6232  157.4735 H       1  UNL1        0.2924
     15 C         141.0100  144.3987  160.3714 C.2     1  UNL1        0.3032
     16 O         139.7424  145.1242  160.7134 O.2     1  UNL1       -0.2649
     17 N         141.3539  144.1249  158.9373 N.am    1  UNL1       -0.2654
     18 C         142.6214  143.3994  158.5953 C.3     1  UNL1        0.1157
     19 C         142.6779  142.1422  163.1780 C.3     1  UNL1        0.1154
     20 N         141.7542  142.5939  162.0858 N.am    1  UNL1       -0.2688
     21 C         140.6511  141.6927  161.6159 C.3     1  UNL1        0.1154
     22 C         141.9337  143.9470  161.4635 C.2     1  UNL1        0.3030
     23 O         143.0368  144.8482  161.9334 O.2     1  UNL1       -0.2649
     24 C         138.3922  140.0790  159.0100 C.2     1  UNL1        0.2671
     25 O         139.0833  138.8486  158.5015 O.2     1  UNL1       -0.2684
     26 N         137.7511  140.0729  160.3660 N.am    1  UNL1       -0.2956
     27 H         137.2975  140.8804  160.6997 H       1  UNL1        0.1501
     28 C         137.8010  138.8362  161.2136 C.3     1  UNL1        0.1166
     29 C         138.1453  138.9387  162.6700 C.ar    1  UNL1       -0.0024
     30 C         137.8412  140.1981  163.4258 C.ar    1  UNL1       -0.0003
     31 C         138.1855  140.3005  164.8822 C.ar    1  UNL1        0.0294
     32 C         138.8339  139.1433  165.5827 C.ar    1  UNL1        0.1401
     33 F         139.1781  139.2458  167.0390 F       1  UNL1       -0.2042
     34 C         139.1379  137.8838  164.8268 C.ar    1  UNL1        0.0294
     35 C         138.7936  137.7815  163.3705 C.ar    1  UNL1       -0.0003
@<TRIPOS>BOND
     1    19    20    1
     2    20    21    1
     3    20    22   am
     4    22    23    2
     5    22    15    1
     6    15    16    2
     7    15    17   am
     8    17    18    1
     9     1    17    1
    10     1     2    1
    11     2     3    1
    12     3     4    1
    13     4     5    1
    14     5     6    1
    15     6     7   ar
    16     7     8   ar
    17     8     9   ar
    18     9    24    1
    19    24    25    2
    20    24    26   am
    21    26    28    1
    22    28    29    1
    23    29    30   ar
    24    30    31   ar
    25    31    32   ar
    26    32    33    1
    27    32    34   ar
    28    34    35   ar
    29     9    10   ar
    30    10    11    1
    31    10    12   ar
    32    12    13    2
    33     7     1    1
    34    35    29   ar
    35    12     6   ar
    36    26    27    1
    37    11    14    1
@<TRIPOS>MOLECULE
*****
 35 37 0 0 0
SMALL
GASTEIGER

@<TRIPOS>ATOM
      1 C         140.2471  142.5362  161.5817 C.3     1  UNL1        0.1326
      2 C         139.9644  143.1406  160.2382 C.3     1  UNL1        0.0276
      3 C         139.0856  142.6146  159.1424 C.3     1  UNL1        0.0042
      4 C         138.2723  141.3545  159.1192 C.3     1  UNL1        0.0247
      5 C         138.1370  140.3090  160.1863 C.3     1  UNL1        0.1103
      6 N         138.7817  140.2655  161.5400 N.ar    1  UNL1       -0.2802
      7 C         139.7207  141.2566  162.1611 C.ar    1  UNL1        0.1410
      8 N         140.2557  141.0195  163.5422 N.ar    1  UNL1       -0.2228
      9 C         139.8516  139.7911  164.3023 C.ar    1  UNL1        0.1740
     10 C         138.9125  138.7999  163.6813 C.ar    1  UNL1        0.2130
     11 O         138.5084  137.5715  164.4414 O.3     1  UNL1       -0.5006
     12 C         138.3775  139.0371  162.3002 C.ar    1  UNL1        0.2973
     13 O         137.4384  138.0458  161.6792 O.2     1  UNL1       -0.2636
     14 H         138.8426  137.4233  165.3041 H       1  UNL1        0.2924
     15 C         142.6461  142.9996  162.4651 C.2     1  UNL1        0.3032
     16 O         143.1804  141.9067  161.5874 O.2     1  UNL1       -0.2649
     17 N         141.1795  143.3143  162.4622 N.am    1  UNL1       -0.2654
     18 C         140.6453  144.4071  163.3399 C.3     1  UNL1        0.1157
     19 C         144.8329  144.0567  165.6036 C.3     1  UNL1        0.1154
     20 N         143.9005  143.2787  164.7231 N.am    1  UNL1       -0.2688
     21 C         143.2903  142.0017  165.2199 C.3     1  UNL1        0.1154
     22 C         143.5784  143.7776  163.3456 C.2     1  UNL1        0.3030
     23 O         144.1886  145.0546  162.8487 O.2     1  UNL1       -0.2649
     24 C         140.3866  139.5539  165.6835 C.2     1  UNL1        0.2671
     25 O         141.6698  138.8003  165.8714 O.2     1  UNL1       -0.2684
     26 N         139.6384  140.0702  166.8765 N.am    1  UNL1       -0.2956
     27 H         138.7961  140.5648  166.7531 H       1  UNL1        0.1501
     28 C         140.1734  139.8330  168.2577 C.3     1  UNL1        0.1166
     29 C         141.0094  140.8823  168.9286 C.ar    1  UNL1       -0.0024
     30 C         140.3979  142.1978  169.3099 C.ar    1  UNL1       -0.0003
     31 C         141.2340  143.2471  169.9808 C.ar    1  UNL1        0.0294
     32 C         142.6816  142.9807  170.2704 C.ar    1  UNL1        0.1401
     33 F         143.5175  144.0300  170.9412 F       1  UNL1       -0.2042
     34 C         143.2930  141.6651  169.8890 C.ar    1  UNL1        0.0294
     35 C         142.4569  140.6159  169.2181 C.ar    1  UNL1       -0.0003
@<TRIPOS>BOND
     1    19    20    1
     2    20    21    1
     3    20    22   am
     4    22    23    2
     5    22    15    1
     6    15    16    2
     7    15    17   am
     8    17    18    1
     9     1    17    1
    10     1     2    1
    11     2     3    1
    12     3     4    1
    13     4     5    1
    14     5     6    1
    15     6     7   ar
    16     7     8   ar
    17     8     9   ar
    18     9    24    1
    19    24    25    2
    20    24    26   am
    21    26    28    1
    22    28    29    1
    23    29    30   ar
    24    30    31   ar
    25    31    32   ar
    26    32    33    1
    27    32    34   ar
    28    34    35   ar
    29     9    10   ar
    30    10    11    1
    31    10    12   ar
    32    12    13    2
    33     7     1    1
    34    35    29   ar
    35    12     6   ar
    36    26    27    1
    37    11    14    1
@<TRIPOS>MOLECULE
*****
 35 37 0 0 0
SMALL
GASTEIGER

@<TRIPOS>ATOM
      1 C         140.6136  144.7989  158.6821 C.3     1  UNL1        0.1326
      2 C         141.1482  145.9346  157.8608 C.3     1  UNL1        0.0276
      3 C         140.8482  146.2776  156.4318 C.3     1  UNL1        0.0042
      4 C         139.9395  145.5697  155.4709 C.3     1  UNL1        0.0247
      5 C         139.1064  144.3439  155.7019 C.3     1  UNL1        0.1103
      6 N         138.9763  143.5233  156.9508 N.ar    1  UNL1       -0.2802
      7 C         139.6470  143.7257  158.2770 C.ar    1  UNL1        0.1410
      8 N         139.3750  142.7781  159.4075 N.ar    1  UNL1       -0.2228
      9 C         138.4321  141.6280  159.2117 C.ar    1  UNL1        0.1740
     10 C         137.7614  141.4255  157.8854 C.ar    1  UNL1        0.2130
     11 O         136.8185  140.2754  157.6895 O.3     1  UNL1       -0.5006
     12 C         138.0334  142.3731  156.7549 C.ar    1  UNL1        0.2973
     13 O         137.3626  142.1707  155.4286 O.2     1  UNL1       -0.2636
     14 H         136.6486  139.6835  158.3956 H       1  UNL1        0.2924
     15 C         142.3037  143.8796  160.4281 C.2     1  UNL1        0.3032
     16 O         142.9982  143.1046  159.3477 O.2     1  UNL1       -0.2649
     17 N         141.1115  144.7268  160.0952 N.am    1  UNL1       -0.2654
     18 C         140.4171  145.5018  161.1755 C.3     1  UNL1        0.1157
     19 C         142.7698  142.6835  164.1834 C.3     1  UNL1        0.1154
     20 N         142.2719  142.7556  162.7702 N.am    1  UNL1       -0.2688
     21 C         141.2444  141.7760  162.2862 C.3     1  UNL1        0.1154
     22 C         142.8016  143.8075  161.8412 C.2     1  UNL1        0.3030
     23 O         143.8291  144.7872  162.3253 O.2     1  UNL1       -0.2649
     24 C         138.1600  140.6803  160.3421 C.2     1  UNL1        0.2671
     25 O         137.4963  141.1757  161.5928 O.2     1  UNL1       -0.2684
     26 N         138.5516  139.2374  160.2220 N.am    1  UNL1       -0.2956
     27 H         138.9872  138.9123  159.4011 H       1  UNL1        0.1501
     28 C         138.2794  138.2898  161.3525 C.3     1  UNL1        0.1166
     29 C         139.3222  138.0601  162.4061 C.ar    1  UNL1       -0.0024
     30 C         140.7729  138.0125  162.0277 C.ar    1  UNL1       -0.0003
     31 C         141.8156  137.7829  163.0814 C.ar    1  UNL1        0.0294
     32 C         141.4075  137.6007  164.5133 C.ar    1  UNL1        0.1401
     33 F         142.4502  137.3711  165.5668 F       1  UNL1       -0.2042
     34 C         139.9567  137.6483  164.8916 C.ar    1  UNL1        0.0294
     35 C         138.9141  137.8780  163.8379 C.ar    1  UNL1       -0.0003
@<TRIPOS>BOND
     1    19    20    1
     2    20    21    1
     3    20    22   am
     4    22    23    2
     5    22    15    1
     6    15    16    2
     7    15    17   am
     8    17    18    1
     9     1    17    1
    10     1     2    1
    11     2     3    1
    12     3     4    1
    13     4     5    1
    14     5     6    1
    15     6     7   ar
    16     7     8   ar
    17     8     9   ar
    18     9    24    1
    19    24    25    2
    20    24    26   am
    21    26    28    1
    22    28    29    1
    23    29    30   ar
    24    30    31   ar
    25    31    32   ar
    26    32    33    1
    27    32    34   ar
    28    34    35   ar
    29     9    10   ar
    30    10    11    1
    31    10    12   ar
    32    12    13    2
    33     7     1    1
    34    35    29   ar
    35    12     6   ar
    36    26    27    1
    37    11    14    1
@<TRIPOS>MOLECULE
*****
 35 37 0 0 0
SMALL
GASTEIGER

@<TRIPOS>ATOM
      1 C         140.5682  142.9811  159.2970 C.3     1  UNL1        0.1326
      2 C         140.2806  143.8274  158.0923 C.3     1  UNL1        0.0276
      3 C         140.9710  143.8240  156.7607 C.3     1  UNL1        0.0042
      4 C         142.1195  142.9736  156.3047 C.3     1  UNL1        0.0247
      5 C         142.8613  141.9166  157.0679 C.3     1  UNL1        0.1103
      6 N         142.6377  141.4489  158.4755 N.ar    1  UNL1       -0.2802
      7 C         141.6173  141.9226  159.4675 C.ar    1  UNL1        0.1410
      8 N         141.5642  141.3142  160.8375 N.ar    1  UNL1       -0.2228
      9 C         142.5317  140.2320  161.2156 C.ar    1  UNL1        0.1740
     10 C         143.5522  139.7582  160.2235 C.ar    1  UNL1        0.2130
     11 O         144.5196  138.6760  160.6014 O.3     1  UNL1       -0.5006
     12 C         143.6052  140.3666  158.8534 C.ar    1  UNL1        0.2973
     13 O         144.6257  139.8928  157.8614 O.2     1  UNL1       -0.2636
     14 H         144.4866  138.2959  161.4572 H       1  UNL1        0.2924
     15 C         140.0018  144.3510  161.4306 C.2     1  UNL1        0.3032
     16 O         141.1902  145.2316  161.1808 O.2     1  UNL1       -0.2649
     17 N         139.6908  143.2258  160.4888 N.am    1  UNL1       -0.2654
     18 C         138.5025  142.3453  160.7386 C.3     1  UNL1        0.1157
     19 C         138.7865  144.6319  165.1982 C.3     1  UNL1        0.1154
     20 N         139.6639  144.3872  164.0064 N.am    1  UNL1       -0.2688
     21 C         141.0808  143.9340  164.1987 C.3     1  UNL1        0.1154
     22 C         139.1243  144.5957  162.6224 C.2     1  UNL1        0.3030
     23 O         137.7074  145.0489  162.4301 O.2     1  UNL1       -0.2649
     24 C         142.4787  139.6235  162.5856 C.2     1  UNL1        0.2671
     25 O         142.8110  138.1732  162.7754 O.2     1  UNL1       -0.2684
     26 N         142.0934  140.4653  163.7657 N.am    1  UNL1       -0.2956
     27 H         141.8753  141.4172  163.6411 H       1  UNL1        0.1501
     28 C         142.0404  139.8568  165.1357 C.3     1  UNL1        0.1166
     29 C         140.7266  139.4168  165.7106 C.ar    1  UNL1       -0.0024
     30 C         140.2223  140.0291  166.9837 C.ar    1  UNL1       -0.0003
     31 C         138.9085  139.5891  167.5585 C.ar    1  UNL1        0.0294
     32 C         138.0992  138.5367  166.8603 C.ar    1  UNL1        0.1401
     33 F         136.7854  138.0967  167.4351 F       1  UNL1       -0.2042
     34 C         138.6036  137.9244  165.5872 C.ar    1  UNL1        0.0294
     35 C         139.9173  138.3644  165.0124 C.ar    1  UNL1       -0.0003
@<TRIPOS>BOND
     1    19    20    1
     2    20    21    1
     3    20    22   am
     4    22    23    2
     5    22    15    1
     6    15    16    2
     7    15    17   am
     8    17    18    1
     9     1    17    1
    10     1     2    1
    11     2     3    1
    12     3     4    1
    13     4     5    1
    14     5     6    1
    15     6     7   ar
    16     7     8   ar
    17     8     9   ar
    18     9    24    1
    19    24    25    2
    20    24    26   am
    21    26    28    1
    22    28    29    1
    23    29    30   ar
    24    30    31   ar
    25    31    32   ar
    26    32    33    1
    27    32    34   ar
    28    34    35   ar
    29     9    10   ar
    30    10    11    1
    31    10    12   ar
    32    12    13    2
    33     7     1    1
    34    35    29   ar
    35    12     6   ar
    36    26    27    1
    37    11    14    1
@<TRIPOS>MOLECULE
*****
 35 37 0 0 0
SMALL
GASTEIGER

@<TRIPOS>ATOM
      1 C         140.5418  143.8664  160.2230 C.3     1  UNL1        0.1326
      2 C         140.7728  144.7555  159.0371 C.3     1  UNL1        0.0276
      3 C         140.1715  144.6610  157.6663 C.3     1  UNL1        0.0042
      4 C         139.1907  143.6542  157.1425 C.3     1  UNL1        0.0247
      5 C         138.5689  142.4932  157.8604 C.3     1  UNL1        0.1103
      6 N         138.7745  142.0522  159.2793 N.ar    1  UNL1       -0.2802
      7 C         139.6524  142.6632  160.3307 C.ar    1  UNL1        0.1410
      8 N         139.7127  142.0583  161.7020 N.ar    1  UNL1       -0.2228
      9 C         138.8949  140.8421  162.0218 C.ar    1  UNL1        0.1740
     10 C         138.0169  140.2310  160.9703 C.ar    1  UNL1        0.2130
     11 O         137.1991  139.0149  161.2900 O.3     1  UNL1       -0.5006
     12 C         137.9566  140.8360  159.5990 C.ar    1  UNL1        0.2973
     13 O         137.0786  140.2248  158.5476 O.2     1  UNL1       -0.2636
     14 H         137.2367  138.6369  162.1466 H       1  UNL1        0.2924
     15 C         142.6890  143.7016  161.6764 C.2     1  UNL1        0.3032
     16 O         143.3190  142.8131  160.6449 O.2     1  UNL1       -0.2649
     17 N         141.3005  144.2282  161.4654 N.am    1  UNL1       -0.2654
     18 C         140.6706  145.1167  162.4968 C.3     1  UNL1        0.1157
     19 C         144.2256  143.4842  165.3290 C.3     1  UNL1        0.1154
     20 N         143.4669  143.1223  164.0866 N.am    1  UNL1       -0.2688
     21 C         142.7275  141.8194  164.0122 C.3     1  UNL1        0.1154
     22 C         143.4477  144.0635  162.9187 C.2     1  UNL1        0.3030
     23 O         144.1872  145.3664  162.9932 O.2     1  UNL1       -0.2649
     24 C         138.9552  140.2371  163.3930 C.2     1  UNL1        0.2671
     25 O         138.6951  138.7714  163.5781 O.2     1  UNL1       -0.2684
     26 N         139.2754  141.0976  164.5791 N.am    1  UNL1       -0.2956
     27 H         139.4461  142.0595  164.4576 H       1  UNL1        0.1501
     28 C         139.3356  140.4925  165.9504 C.3     1  UNL1        0.1166
     29 C         140.4749  140.8253  166.8676 C.ar    1  UNL1       -0.0024
     30 C         141.5376  139.8037  167.1449 C.ar    1  UNL1       -0.0003
     31 C         142.6768  140.1366  168.0622 C.ar    1  UNL1        0.0294
     32 C         142.7533  141.4911  168.7021 C.ar    1  UNL1        0.1401
     33 F         143.8925  141.8239  169.6193 F       1  UNL1       -0.2042
     34 C         141.6906  142.5127  168.4248 C.ar    1  UNL1        0.0294
     35 C         140.5513  142.1798  167.5075 C.ar    1  UNL1       -0.0003
@<TRIPOS>BOND
     1    19    20    1
     2    20    21    1
     3    20    22   am
     4    22    23    2
     5    22    15    1
     6    15    16    2
     7    15    17   am
     8    17    18    1
     9     1    17    1
    10     1     2    1
    11     2     3    1
    12     3     4    1
    13     4     5    1
    14     5     6    1
    15     6     7   ar
    16     7     8   ar
    17     8     9   ar
    18     9    24    1
    19    24    25    2
    20    24    26   am
    21    26    28    1
    22    28    29    1
    23    29    30   ar
    24    30    31   ar
    25    31    32   ar
    26    32    33    1
    27    32    34   ar
    28    34    35   ar
    29     9    10   ar
    30    10    11    1
    31    10    12   ar
    32    12    13    2
    33     7     1    1
    34    35    29   ar
    35    12     6   ar
    36    26    27    1
    37    11    14    1
@<TRIPOS>MOLECULE
*****
 35 37 0 0 0
SMALL
GASTEIGER

@<TRIPOS>ATOM
      1 C         140.5833  144.4831  159.0009 C.3     1  UNL1        0.1326
      2 C         141.2436  145.6955  158.4140 C.3     1  UNL1        0.0276
      3 C         141.2178  146.1795  156.9946 C.3     1  UNL1        0.0042
      4 C         140.5253  145.5709  155.8113 C.3     1  UNL1        0.0247
      5 C         139.6876  144.3279  155.7553 C.3     1  UNL1        0.1103
      6 N         139.3355  143.3865  156.8687 N.ar    1  UNL1       -0.2802
      7 C         139.7341  143.4555  158.3131 C.ar    1  UNL1        0.1410
      8 N         139.2681  142.3996  159.2711 N.ar    1  UNL1       -0.2228
      9 C         138.4034  141.2745  158.7847 C.ar    1  UNL1        0.1740
     10 C         138.0048  141.2054  157.3402 C.ar    1  UNL1        0.2130
     11 O         137.1402  140.0804  156.8537 O.3     1  UNL1       -0.5006
     12 C         138.4709  142.2614  156.3822 C.ar    1  UNL1        0.2973
     13 O         138.0722  142.1923  154.9378 O.2     1  UNL1       -0.2636
     14 H         136.8491  139.4207  157.4521 H       1  UNL1        0.2924
     15 C         140.0925  145.1388  161.4664 C.2     1  UNL1        0.3032
     16 O         139.1663  146.2203  160.9945 O.2     1  UNL1       -0.2649
     17 N         140.8009  144.2703  160.4697 N.am    1  UNL1       -0.2654
     18 C         141.7270  143.1889  160.9416 C.3     1  UNL1        0.1157
     19 C         139.4700  144.0425  165.2295 C.3     1  UNL1        0.1154
     20 N         139.2523  144.2554  163.7607 N.am    1  UNL1       -0.2688
     21 C         137.9770  143.7977  163.1175 C.3     1  UNL1        0.1154
     22 C         140.3102  144.9260  162.9352 C.2     1  UNL1        0.3030
     23 O         141.5855  145.3837  163.5785 O.2     1  UNL1       -0.2649
     24 C         137.9374  140.2185  159.7426 C.2     1  UNL1        0.2671
     25 O         136.4797  139.8756  159.8296 O.2     1  UNL1       -0.2684
     26 N         138.9289  139.5055  160.6134 N.am    1  UNL1       -0.2956
     27 H         139.8856  139.7305  160.5563 H       1  UNL1        0.1501
     28 C         138.4627  138.4494  161.5713 C.3     1  UNL1        0.1166
     29 C         138.4925  138.7107  163.0482 C.ar    1  UNL1       -0.0024
     30 C         138.8297  137.6010  163.9994 C.ar    1  UNL1       -0.0003
     31 C         138.8594  137.8623  165.4762 C.ar    1  UNL1        0.0294
     32 C         138.5519  139.2333  166.0017 C.ar    1  UNL1        0.1401
     33 F         138.5816  139.4944  167.4784 F       1  UNL1       -0.2042
     34 C         138.2147  140.3429  165.0503 C.ar    1  UNL1        0.0294
     35 C         138.1850  140.0816  163.5735 C.ar    1  UNL1       -0.0003
@<TRIPOS>BOND
     1    19    20    1
     2    20    21    1
     3    20    22   am
     4    22    23    2
     5    22    15    1
     6    15    16    2
     7    15    17   am
     8    17    18    1
     9     1    17    1
    10     1     2    1
    11     2     3    1
    12     3     4    1
    13     4     5    1
    14     5     6    1
    15     6     7   ar
    16     7     8   ar
    17     8     9   ar
    18     9    24    1
    19    24    25    2
    20    24    26   am
    21    26    28    1
    22    28    29    1
    23    29    30   ar
    24    30    31   ar
    25    31    32   ar
    26    32    33    1
    27    32    34   ar
    28    34    35   ar
    29     9    10   ar
    30    10    11    1
    31    10    12   ar
    32    12    13    2
    33     7     1    1
    34    35    29   ar
    35    12     6   ar
    36    26    27    1
    37    11    14    1
@<TRIPOS>MOLECULE
*****
 35 37 0 0 0
SMALL
GASTEIGER

@<TRIPOS>ATOM
      1 C         139.1929  140.8453  160.5249 C.3     1  UNL1        0.1326
      2 C         138.3144  140.8523  159.3090 C.3     1  UNL1        0.0276
      3 C         138.5170  140.1397  158.0048 C.3     1  UNL1        0.0042
      4 C         139.6480  139.2440  157.5942 C.3     1  UNL1        0.0247
      5 C         140.8558  138.8398  158.3865 C.3     1  UNL1        0.1103
      6 N         141.2309  139.2314  159.7851 N.ar    1  UNL1       -0.2802
      7 C         140.4909  140.1239  160.7367 C.ar    1  UNL1        0.1410
      8 N         141.0474  140.3875  162.1045 N.ar    1  UNL1       -0.2228
      9 C         142.3441  139.7586  162.5206 C.ar    1  UNL1        0.1740
     10 C         143.0842  138.8661  161.5689 C.ar    1  UNL1        0.2130
     11 O         144.3808  138.2371  161.9849 O.3     1  UNL1       -0.5006
     12 C         142.5276  138.6024  160.2011 C.ar    1  UNL1        0.2973
     13 O         143.2677  137.7099  159.2495 O.2     1  UNL1       -0.2636
     14 H         144.7285  138.4017  162.8393 H       1  UNL1        0.2924
     15 C         139.1375  143.1001  161.8145 C.2     1  UNL1        0.3032
     16 O         140.0489  143.7084  160.7901 O.2     1  UNL1       -0.2649
     17 N         138.7095  141.6686  161.6819 N.am    1  UNL1       -0.2654
     18 C         137.7981  141.0603  162.7062 C.3     1  UNL1        0.1157
     19 C         138.9618  144.7876  165.4022 C.3     1  UNL1        0.1154
     20 N         139.4453  143.9643  164.2452 N.am    1  UNL1       -0.2688
     21 C         140.7198  143.1822  164.3620 C.3     1  UNL1        0.1154
     22 C         138.6540  143.9233  162.9715 C.2     1  UNL1        0.3030
     23 O         137.3795  144.7055  162.8548 O.2     1  UNL1       -0.2649
     24 C         142.9007  140.0222  163.8883 C.2     1  UNL1        0.2671
     25 O         144.3331  140.4379  164.0477 O.2     1  UNL1       -0.2684
     26 N         142.0251  139.8701  165.0965 N.am    1  UNL1       -0.2956
     27 H         141.0849  139.5972  164.9919 H       1  UNL1        0.1501
     28 C         142.5818  140.1337  166.4643 C.3     1  UNL1        0.1166
     29 C         141.7222  140.7750  167.5131 C.ar    1  UNL1       -0.0024
     30 C         142.0269  142.1659  167.9848 C.ar    1  UNL1       -0.0003
     31 C         141.1673  142.8072  169.0336 C.ar    1  UNL1        0.0294
     32 C         140.0031  142.0576  169.6105 C.ar    1  UNL1        0.1401
     33 F         139.1436  142.6990  170.6592 F       1  UNL1       -0.2042
     34 C         139.6985  140.6667  169.1387 C.ar    1  UNL1        0.0294
     35 C         140.5581  140.0254  168.0899 C.ar    1  UNL1       -0.0003
@<TRIPOS>BOND
     1    19    20    1
     2    20    21    1
     3    20    22   am
     4    22    23    2
     5    22    15    1
     6    15    16    2
     7    15    17   am
     8    17    18    1
     9     1    17    1
    10     1     2    1
    11     2     3    1
    12     3     4    1
    13     4     5    1
    14     5     6    1
    15     6     7   ar
    16     7     8   ar
    17     8     9   ar
    18     9    24    1
    19    24    25    2
    20    24    26   am
    21    26    28    1
    22    28    29    1
    23    29    30   ar
    24    30    31   ar
    25    31    32   ar
    26    32    33    1
    27    32    34   ar
    28    34    35   ar
    29     9    10   ar
    30    10    11    1
    31    10    12   ar
    32    12    13    2
    33     7     1    1
    34    35    29   ar
    35    12     6   ar
    36    26    27    1
    37    11    14    1
@<TRIPOS>MOLECULE
*****
 35 37 0 0 0
SMALL
GASTEIGER

@<TRIPOS>ATOM
      1 C         142.2892  140.5389  160.4597 C.3     1  UNL1        0.1326
      2 C         142.9304  139.8370  159.2993 C.3     1  UNL1        0.0276
      3 C         143.3786  140.4137  157.9892 C.3     1  UNL1        0.0042
      4 C         143.2964  141.8347  157.5157 C.3     1  UNL1        0.0247
      5 C         142.7457  143.0299  158.2356 C.3     1  UNL1        0.1103
      6 N         142.1412  143.0994  159.6066 N.ar    1  UNL1       -0.2802
      7 C         141.9380  141.9909  160.5964 C.ar    1  UNL1        0.1410
      8 N         141.3071  142.2791  161.9264 N.ar    1  UNL1       -0.2228
      9 C         140.8794  143.6760  162.2666 C.ar    1  UNL1        0.1740
     10 C         141.0825  144.7846  161.2767 C.ar    1  UNL1        0.2130
     11 O         140.6548  146.1815  161.6168 O.3     1  UNL1       -0.5006
     12 C         141.7134  144.4963  159.9467 C.ar    1  UNL1        0.2973
     13 O         141.9166  145.6049  158.9569 O.2     1  UNL1       -0.2636
     14 H         140.2607  146.3616  162.4476 H       1  UNL1        0.2924
     15 C         140.6407  138.9540  161.6927 C.2     1  UNL1        0.3032
     16 O         139.6603  139.0977  160.5666 O.2     1  UNL1       -0.2649
     17 N         141.9552  139.6746  161.6393 N.am    1  UNL1       -0.2654
     18 C         142.9355  139.5309  162.7654 C.3     1  UNL1        0.1157
     19 C         139.0055  137.7136  165.0894 C.3     1  UNL1        0.1154
     20 N         139.3395  138.5779  163.9098 N.am    1  UNL1       -0.2688
     21 C         138.7066  139.9304  163.7678 C.3     1  UNL1        0.1154
     22 C         140.3066  138.0897  162.8723 C.2     1  UNL1        0.3030
     23 O         140.9396  136.7373  163.0143 O.2     1  UNL1       -0.2649
     24 C         140.2484  143.9644  163.5965 C.2     1  UNL1        0.2671
     25 O         139.2409  145.0682  163.7250 O.2     1  UNL1       -0.2684
     26 N         140.6250  143.1490  164.7978 N.am    1  UNL1       -0.2956
     27 H         141.2862  142.4245  164.7135 H       1  UNL1        0.1501
     28 C         139.9940  143.4374  166.1278 C.3     1  UNL1        0.1166
     29 C         140.1361  142.4565  167.2538 C.ar    1  UNL1       -0.0024
     30 C         139.9341  140.9916  167.0023 C.ar    1  UNL1       -0.0003
     31 C         140.0762  140.0109  168.1283 C.ar    1  UNL1        0.0294
     32 C         140.4203  140.4950  169.5058 C.ar    1  UNL1        0.1401
     33 F         140.5624  139.5142  170.6317 F       1  UNL1       -0.2042
     34 C         140.6222  141.9600  169.7572 C.ar    1  UNL1        0.0294
     35 C         140.4801  142.9407  168.6311 C.ar    1  UNL1       -0.0003
@<TRIPOS>BOND
     1    19    20    1
     2    20    21    1
     3    20    22   am
     4    22    23    2
     5    22    15    1
     6    15    16    2
     7    15    17   am
     8    17    18    1
     9     1    17    1
    10     1     2    1
    11     2     3    1
    12     3     4    1
    13     4     5    1
    14     5     6    1
    15     6     7   ar
    16     7     8   ar
    17     8     9   ar
    18     9    24    1
    19    24    25    2
    20    24    26   am
    21    26    28    1
    22    28    29    1
    23    29    30   ar
    24    30    31   ar
    25    31    32   ar
    26    32    33    1
    27    32    34   ar
    28    34    35   ar
    29     9    10   ar
    30    10    11    1
    31    10    12   ar
    32    12    13    2
    33     7     1    1
    34    35    29   ar
    35    12     6   ar
    36    26    27    1
    37    11    14    1
