@<TRIPOS>MOLECULE
*****
 36 40 0 0 0
SMALL
GASTEIGER

@<TRIPOS>ATOM
      1 C         140.2038  144.4958  163.1553 C.3     1  UNL1        0.1455
      2 C         141.5693  144.6565  163.7549 C.3     1  UNL1        0.1034
      3 N         142.7742  144.1405  163.0256 N.3     1  UNL1       -0.2689
      4 C         142.6135  143.4637  161.6966 C.3     1  UNL1        0.0737
      5 C         141.2480  143.3029  161.0970 C.3     1  UNL1        0.0356
      6 C         140.0431  143.8190  161.8264 C.3     1  UNL1        0.0846
      7 C         138.8128  144.7003  165.3402 C.3     1  UNL1        0.1741
      8 O         138.9990  145.0118  163.8847 O.3     1  UNL1       -0.3508
      9 N         138.6776  143.6583  161.2268 N.3     1  UNL1       -0.2915
     10 H         138.6289  144.2940  160.4307 H       1  UNL1        0.1236
     11 C         138.2275  142.3142  160.7359 C.3     1  UNL1        0.1153
     12 C         138.3839  141.1055  161.6103 C.ar    1  UNL1        0.0782
     13 C         138.0973  141.2005  163.0795 C.ar    1  UNL1        0.0562
     14 C         138.2536  139.9918  163.9539 C.ar    1  UNL1        0.1752
     15 C         138.6966  138.6880  163.3590 C.ar    1  UNL1        0.1914
     16 C         138.9832  138.5929  161.8897 C.ar    1  UNL1        0.1384
     17 N         138.8269  139.8016  161.0153 N.ar    1  UNL1       -0.2434
     18 O         138.8529  137.4793  164.2334 O.3     1  UNL1       -0.4668
     19 C         138.5663  137.5743  165.7027 C.3     1  UNL1        0.2527
     20 C         138.1233  138.8781  166.2976 C.3     1  UNL1        0.2526
     21 O         137.9670  140.0869  165.4232 O.3     1  UNL1       -0.4683
     22 C         144.1397  144.3012  163.6252 C.3     1  UNL1        0.0970
     23 C         144.5278  143.5000  164.8325 C.3     1  UNL1        0.1263
     24 N         144.2496  142.0267  164.8759 N.ar    1  UNL1       -0.2941
     25 C         144.9730  141.0991  163.9452 C.ar    1  UNL1        0.2610
     26 O         145.9746  141.6448  162.9710 O.2     1  UNL1       -0.2670
     27 C         144.6948  139.6257  163.9887 C.ar    1  UNL1        0.0608
     28 C         143.6932  139.0800  164.9628 C.ar    1  UNL1        0.0063
     29 C         142.9698  140.0076  165.8936 C.ar    1  UNL1        0.0161
     30 C         141.9682  139.4619  166.8677 C.ar    1  UNL1        0.0021
     31 C         141.2449  140.3895  167.7984 C.ar    1  UNL1        0.0104
     32 C         141.5230  141.8628  167.7550 C.ar    1  UNL1        0.0699
     33 C         142.5246  142.4085  166.7808 C.ar    1  UNL1        0.0275
     34 C         143.2480  141.4809  165.8501 C.ar    1  UNL1        0.0631
     35 C         140.7996  142.7904  168.6858 C.1     1  UNL1        0.1005
     36 N         140.0762  143.7180  169.6165 N.1     1  UNL1       -0.1908
@<TRIPOS>BOND
     1     7     8    1
     2     1     8    1
     3     1     2    1
     4     2     3    1
     5     3    22    1
     6    22    23    1
     7    23    24    1
     8    24    25   ar
     9    25    26    2
    10    25    27   ar
    11    27    28   ar
    12    28    29   ar
    13    29    30   ar
    14    30    31   ar
    15    31    32   ar
    16    32    35    1
    17    35    36    3
    18    32    33   ar
    19    33    34   ar
    20     3     4    1
    21     4     5    1
    22     5     6    1
    23     6     9    1
    24     9    11    1
    25    11    12    1
    26    12    13   ar
    27    13    14   ar
    28    14    15   ar
    29    15    16   ar
    30    16    17   ar
    31    15    18    1
    32    18    19    1
    33    19    20    1
    34    20    21    1
    35     6     1    1
    36    17    12   ar
    37    34    24   ar
    38    21    14    1
    39    34    29   ar
    40     9    10    1
@<TRIPOS>MOLECULE
*****
 36 40 0 0 0
SMALL
GASTEIGER

@<TRIPOS>ATOM
      1 C         138.0715  142.3387  161.4720 C.3     1  UNL1        0.1455
      2 C         138.1818  140.8467  161.5811 C.3     1  UNL1        0.1034
      3 N         138.0950  140.1845  162.9241 N.3     1  UNL1       -0.2689
      4 C         137.8978  141.0142  164.1582 C.3     1  UNL1        0.0737
      5 C         137.7875  142.5061  164.0491 C.3     1  UNL1        0.0356
      6 C         137.8744  143.1684  162.7060 C.3     1  UNL1        0.0846
      7 C         139.0100  142.4002  159.0501 C.3     1  UNL1        0.1741
      8 O         138.1584  143.0010  160.1290 O.3     1  UNL1       -0.3508
      9 N         137.7641  144.6604  162.5969 N.3     1  UNL1       -0.2915
     10 H         137.2333  144.9765  163.4085 H       1  UNL1        0.1236
     11 C         139.0045  145.5017  162.5362 C.3     1  UNL1        0.1153
     12 C         140.3532  144.8469  162.4899 C.ar    1  UNL1        0.0782
     13 C         141.0317  144.4365  163.7632 C.ar    1  UNL1        0.0562
     14 C         142.3805  143.7818  163.7169 C.ar    1  UNL1        0.1752
     15 C         143.0508  143.5375  162.3975 C.ar    1  UNL1        0.1914
     16 C         142.3723  143.9479  161.1242 C.ar    1  UNL1        0.1384
     17 N         141.0235  144.6026  161.1704 N.ar    1  UNL1       -0.2434
     18 O         144.3996  142.8827  162.3513 O.3     1  UNL1       -0.4668
     19 C         145.0781  142.4723  163.6245 C.3     1  UNL1        0.2527
     20 C         144.4078  142.7166  164.9440 C.3     1  UNL1        0.2526
     21 O         143.0590  143.3713  164.9903 O.3     1  UNL1       -0.4683
     22 C         138.2053  138.6925  163.0332 C.3     1  UNL1        0.0970
     23 C         138.9880  138.0785  164.1560 C.3     1  UNL1        0.1263
     24 N         140.4425  138.4048  164.3225 N.ar    1  UNL1       -0.2941
     25 C         141.4107  138.1008  163.2179 C.ar    1  UNL1        0.2610
     26 O         140.9243  137.4703  161.9467 O.2     1  UNL1       -0.2670
     27 C         142.8653  138.4272  163.3845 C.ar    1  UNL1        0.0608
     28 C         143.3517  139.0576  164.6557 C.ar    1  UNL1        0.0063
     29 C         142.3835  139.3617  165.7603 C.ar    1  UNL1        0.0161
     30 C         142.8699  139.9921  167.0315 C.ar    1  UNL1        0.0021
     31 C         141.9017  140.2962  168.1361 C.ar    1  UNL1        0.0104
     32 C         140.4472  139.9698  167.9695 C.ar    1  UNL1        0.0699
     33 C         139.9608  139.3394  166.6984 C.ar    1  UNL1        0.0275
     34 C         140.9289  139.0353  165.5938 C.ar    1  UNL1        0.0631
     35 C         139.4790  140.2739  169.0742 C.1     1  UNL1        0.1005
     36 N         138.5109  140.5779  170.1789 N.1     1  UNL1       -0.1908
@<TRIPOS>BOND
     1     7     8    1
     2     1     8    1
     3     1     2    1
     4     2     3    1
     5     3    22    1
     6    22    23    1
     7    23    24    1
     8    24    25   ar
     9    25    26    2
    10    25    27   ar
    11    27    28   ar
    12    28    29   ar
    13    29    30   ar
    14    30    31   ar
    15    31    32   ar
    16    32    35    1
    17    35    36    3
    18    32    33   ar
    19    33    34   ar
    20     3     4    1
    21     4     5    1
    22     5     6    1
    23     6     9    1
    24     9    11    1
    25    11    12    1
    26    12    13   ar
    27    13    14   ar
    28    14    15   ar
    29    15    16   ar
    30    16    17   ar
    31    15    18    1
    32    18    19    1
    33    19    20    1
    34    20    21    1
    35     6     1    1
    36    17    12   ar
    37    34    24   ar
    38    21    14    1
    39    34    29   ar
    40     9    10    1
@<TRIPOS>MOLECULE
*****
 36 40 0 0 0
SMALL
GASTEIGER

@<TRIPOS>ATOM
      1 C         140.8133  144.6348  161.4853 C.3     1  UNL1        0.1455
      2 C         142.2721  144.3714  161.7144 C.3     1  UNL1        0.1034
      3 N         142.8184  144.3400  163.1110 N.3     1  UNL1       -0.2689
      4 C         141.9057  144.5720  164.2787 C.3     1  UNL1        0.0737
      5 C         140.4469  144.8354  164.0496 C.3     1  UNL1        0.0356
      6 C         139.9007  144.8668  162.6529 C.3     1  UNL1        0.0846
      7 C         139.8096  143.3968  159.4336 C.3     1  UNL1        0.1741
      8 O         140.2671  144.6662  160.0887 O.3     1  UNL1       -0.3508
      9 N         138.4419  145.1303  162.4238 N.3     1  UNL1       -0.2915
     10 H         138.2937  145.1090  161.4149 H       1  UNL1        0.1236
     11 C         137.4118  144.2251  163.0319 C.3     1  UNL1        0.1153
     12 C         137.6762  142.7524  163.1376 C.ar    1  UNL1        0.0782
     13 C         137.9822  142.1392  164.4719 C.ar    1  UNL1        0.0562
     14 C         138.2465  140.6665  164.5776 C.ar    1  UNL1        0.1752
     15 C         138.2049  139.8069  163.3491 C.ar    1  UNL1        0.1914
     16 C         137.8989  140.4201  162.0147 C.ar    1  UNL1        0.1384
     17 N         137.6345  141.8929  161.9090 N.ar    1  UNL1       -0.2434
     18 O         138.4692  138.3342  163.4548 O.3     1  UNL1       -0.4668
     19 C         138.7752  137.7210  164.7891 C.3     1  UNL1        0.2527
     20 C         138.8169  138.5806  166.0177 C.3     1  UNL1        0.2526
     21 O         138.5525  140.0533  165.9120 O.3     1  UNL1       -0.4683
     22 C         144.2772  144.0766  163.3401 C.3     1  UNL1        0.0970
     23 C         144.7147  143.2466  164.5105 C.3     1  UNL1        0.1263
     24 N         144.3339  141.7977  164.5865 N.ar    1  UNL1       -0.2941
     25 C         144.7403  140.8569  163.4912 C.ar    1  UNL1        0.2610
     26 O         145.5275  141.3650  162.3197 O.2     1  UNL1       -0.2670
     27 C         144.3595  139.4080  163.5672 C.ar    1  UNL1        0.0608
     28 C         143.5723  138.8999  164.7386 C.ar    1  UNL1        0.0063
     29 C         143.1659  139.8407  165.8340 C.ar    1  UNL1        0.0161
     30 C         142.3787  139.3326  167.0054 C.ar    1  UNL1        0.0021
     31 C         141.9723  140.2734  168.1007 C.ar    1  UNL1        0.0104
     32 C         142.3531  141.7223  168.0246 C.ar    1  UNL1        0.0699
     33 C         143.1403  142.2304  166.8533 C.ar    1  UNL1        0.0275
     34 C         143.5467  141.2896  165.7580 C.ar    1  UNL1        0.0631
     35 C         141.9467  142.6630  169.1200 C.1     1  UNL1        0.1005
     36 N         141.5403  143.6038  170.2153 N.1     1  UNL1       -0.1908
@<TRIPOS>BOND
     1     7     8    1
     2     1     8    1
     3     1     2    1
     4     2     3    1
     5     3    22    1
     6    22    23    1
     7    23    24    1
     8    24    25   ar
     9    25    26    2
    10    25    27   ar
    11    27    28   ar
    12    28    29   ar
    13    29    30   ar
    14    30    31   ar
    15    31    32   ar
    16    32    35    1
    17    35    36    3
    18    32    33   ar
    19    33    34   ar
    20     3     4    1
    21     4     5    1
    22     5     6    1
    23     6     9    1
    24     9    11    1
    25    11    12    1
    26    12    13   ar
    27    13    14   ar
    28    14    15   ar
    29    15    16   ar
    30    16    17   ar
    31    15    18    1
    32    18    19    1
    33    19    20    1
    34    20    21    1
    35     6     1    1
    36    17    12   ar
    37    34    24   ar
    38    21    14    1
    39    34    29   ar
    40     9    10    1
@<TRIPOS>MOLECULE
*****
 36 40 0 0 0
SMALL
GASTEIGER

@<TRIPOS>ATOM
      1 C         140.5866  137.8188  162.1422 C.3     1  UNL1        0.1455
      2 C         139.2625  138.5224  162.1850 C.3     1  UNL1        0.1034
      3 N         138.9332  139.5640  161.1572 N.3     1  UNL1       -0.2689
      4 C         139.9279  139.9021  160.0865 C.3     1  UNL1        0.0737
      5 C         141.2520  139.1986  160.0438 C.3     1  UNL1        0.0356
      6 C         141.5813  138.1569  161.0717 C.3     1  UNL1        0.0846
      7 C         141.1985  137.1837  164.5861 C.3     1  UNL1        0.1741
      8 O         140.9159  136.7772  163.1701 O.3     1  UNL1       -0.3508
      9 N         142.9054  137.4533  161.0289 N.3     1  UNL1       -0.2915
     10 H         142.9848  137.0313  160.1037 H       1  UNL1        0.1236
     11 C         144.1714  138.2227  161.2640 C.3     1  UNL1        0.1153
     12 C         144.1771  139.3864  162.2105 C.ar    1  UNL1        0.0782
     13 C         144.1295  140.7874  161.6768 C.ar    1  UNL1        0.0562
     14 C         144.1351  141.9511  162.6232 C.ar    1  UNL1        0.1752
     15 C         144.1883  141.7138  164.1034 C.ar    1  UNL1        0.1914
     16 C         144.2359  140.3128  164.6371 C.ar    1  UNL1        0.1384
     17 N         144.2303  139.1491  163.6907 N.ar    1  UNL1       -0.2434
     18 O         144.1940  142.8776  165.0498 O.3     1  UNL1       -0.4668
     19 C         144.1464  144.2786  164.5161 C.3     1  UNL1        0.2527
     20 C         144.0932  144.5159  163.0359 C.3     1  UNL1        0.2526
     21 O         144.0875  143.3522  162.0895 O.3     1  UNL1       -0.4683
     22 C         137.6091  140.2676  161.1999 C.3     1  UNL1        0.0970
     23 C         137.3494  141.3146  162.2423 C.3     1  UNL1        0.1263
     24 N         138.4963  141.9372  162.9819 N.ar    1  UNL1       -0.2941
     25 C         139.2575  143.0736  162.3661 C.ar    1  UNL1        0.2610
     26 O         138.8718  143.5875  161.0107 O.2     1  UNL1       -0.2670
     27 C         140.4044  143.6961  163.1058 C.ar    1  UNL1        0.0608
     28 C         140.7901  143.1823  164.4612 C.ar    1  UNL1        0.0063
     29 C         140.0290  142.0458  165.0770 C.ar    1  UNL1        0.0161
     30 C         140.4147  141.5320  166.4324 C.ar    1  UNL1        0.0021
     31 C         139.6535  140.3956  167.0481 C.ar    1  UNL1        0.0104
     32 C         138.5066  139.7730  166.3085 C.ar    1  UNL1        0.0699
     33 C         138.1209  140.2869  164.9531 C.ar    1  UNL1        0.0275
     34 C         138.8821  141.4232  164.3374 C.ar    1  UNL1        0.0631
     35 C         137.7455  138.6365  166.9243 C.1     1  UNL1        0.1005
     36 N         136.9843  137.5001  167.5401 N.1     1  UNL1       -0.1908
@<TRIPOS>BOND
     1     7     8    1
     2     1     8    1
     3     1     2    1
     4     2     3    1
     5     3    22    1
     6    22    23    1
     7    23    24    1
     8    24    25   ar
     9    25    26    2
    10    25    27   ar
    11    27    28   ar
    12    28    29   ar
    13    29    30   ar
    14    30    31   ar
    15    31    32   ar
    16    32    35    1
    17    35    36    3
    18    32    33   ar
    19    33    34   ar
    20     3     4    1
    21     4     5    1
    22     5     6    1
    23     6     9    1
    24     9    11    1
    25    11    12    1
    26    12    13   ar
    27    13    14   ar
    28    14    15   ar
    29    15    16   ar
    30    16    17   ar
    31    15    18    1
    32    18    19    1
    33    19    20    1
    34    20    21    1
    35     6     1    1
    36    17    12   ar
    37    34    24   ar
    38    21    14    1
    39    34    29   ar
    40     9    10    1
@<TRIPOS>MOLECULE
*****
 36 40 0 0 0
SMALL
GASTEIGER

@<TRIPOS>ATOM
      1 C         138.0706  141.2441  160.9615 C.3     1  UNL1        0.1455
      2 C         138.0710  142.6600  161.4568 C.3     1  UNL1        0.1034
      3 N         137.8729  142.9440  162.9163 N.3     1  UNL1       -0.2689
      4 C         137.6744  141.8121  163.8804 C.3     1  UNL1        0.0737
      5 C         137.6741  140.3963  163.3851 C.3     1  UNL1        0.0356
      6 C         137.8722  140.1123  161.9255 C.3     1  UNL1        0.0846
      7 C         139.6269  141.1170  158.8850 C.3     1  UNL1        0.1741
      8 O         138.2687  140.9601  159.5020 O.3     1  UNL1       -0.3508
      9 N         137.8718  138.6965  161.4302 N.3     1  UNL1       -0.2915
     10 H         137.3081  138.6820  160.5802 H       1  UNL1        0.1236
     11 C         139.1679  138.0164  161.1018 C.3     1  UNL1        0.1153
     12 C         140.3640  138.2154  161.9849 C.ar    1  UNL1        0.0782
     13 C         141.4291  139.1970  161.5951 C.ar    1  UNL1        0.0562
     14 C         142.6252  139.3960  162.4782 C.ar    1  UNL1        0.1752
     15 C         142.7561  138.6133  163.7511 C.ar    1  UNL1        0.1914
     16 C         141.6910  137.6316  164.1409 C.ar    1  UNL1        0.1384
     17 N         140.4950  137.4327  163.2578 N.ar    1  UNL1       -0.2434
     18 O         143.9522  138.8122  164.6341 O.3     1  UNL1       -0.4668
     19 C         145.0173  139.7939  164.2444 C.3     1  UNL1        0.2527
     20 C         144.8863  140.5766  162.9714 C.3     1  UNL1        0.2526
     21 O         143.6903  140.3776  162.0884 O.3     1  UNL1       -0.4683
     22 C         137.8732  144.3598  163.4116 C.3     1  UNL1        0.0970
     23 C         138.8740  144.7939  164.4413 C.3     1  UNL1        0.1263
     24 N         140.3278  144.4744  164.2555 N.ar    1  UNL1       -0.2941
     25 C         141.1025  145.1226  163.1467 C.ar    1  UNL1        0.2610
     26 O         140.4234  146.0904  162.2235 O.2     1  UNL1       -0.2670
     27 C         142.5562  144.8030  162.9610 C.ar    1  UNL1        0.0608
     28 C         143.2353  143.8352  163.8841 C.ar    1  UNL1        0.0063
     29 C         142.4606  143.1870  164.9931 C.ar    1  UNL1        0.0161
     30 C         143.1396  142.2192  165.9162 C.ar    1  UNL1        0.0021
     31 C         142.3649  141.5710  167.0251 C.ar    1  UNL1        0.0104
     32 C         140.9112  141.8906  167.2108 C.ar    1  UNL1        0.0699
     33 C         140.2321  142.8583  166.2876 C.ar    1  UNL1        0.0275
     34 C         141.0068  143.5065  165.1788 C.ar    1  UNL1        0.0631
     35 C         140.1365  141.2423  168.3197 C.1     1  UNL1        0.1005
     36 N         139.3618  140.5941  169.4286 N.1     1  UNL1       -0.1908
@<TRIPOS>BOND
     1     7     8    1
     2     1     8    1
     3     1     2    1
     4     2     3    1
     5     3    22    1
     6    22    23    1
     7    23    24    1
     8    24    25   ar
     9    25    26    2
    10    25    27   ar
    11    27    28   ar
    12    28    29   ar
    13    29    30   ar
    14    30    31   ar
    15    31    32   ar
    16    32    35    1
    17    35    36    3
    18    32    33   ar
    19    33    34   ar
    20     3     4    1
    21     4     5    1
    22     5     6    1
    23     6     9    1
    24     9    11    1
    25    11    12    1
    26    12    13   ar
    27    13    14   ar
    28    14    15   ar
    29    15    16   ar
    30    16    17   ar
    31    15    18    1
    32    18    19    1
    33    19    20    1
    34    20    21    1
    35     6     1    1
    36    17    12   ar
    37    34    24   ar
    38    21    14    1
    39    34    29   ar
    40     9    10    1
@<TRIPOS>MOLECULE
*****
 36 40 0 0 0
SMALL
GASTEIGER

@<TRIPOS>ATOM
      1 C         138.2636  139.9325  164.1423 C.3     1  UNL1        0.1455
      2 C         137.9901  141.2936  164.7103 C.3     1  UNL1        0.1034
      3 N         137.8345  142.4711  163.7942 N.3     1  UNL1       -0.2689
      4 C         137.9525  142.2876  162.3101 C.3     1  UNL1        0.0737
      5 C         138.2260  140.9265  161.7422 C.3     1  UNL1        0.0356
      6 C         138.3815  139.7489  162.6583 C.3     1  UNL1        0.0846
      7 C         138.3748  138.9502  166.5450 C.3     1  UNL1        0.1741
      8 O         138.4191  138.7550  165.0584 O.3     1  UNL1       -0.3508
      9 N         138.6551  138.3878  162.0903 N.3     1  UNL1       -0.2915
     10 H         138.0071  138.2573  161.3135 H       1  UNL1        0.1236
     11 C         140.0229  138.0514  161.5746 C.3     1  UNL1        0.1153
     12 C         141.2394  138.5819  162.2736 C.ar    1  UNL1        0.0782
     13 C         142.0596  139.6632  161.6349 C.ar    1  UNL1        0.0562
     14 C         143.2761  140.1938  162.3339 C.ar    1  UNL1        0.1752
     15 C         143.6724  139.6431  163.6716 C.ar    1  UNL1        0.1914
     16 C         142.8522  138.5617  164.3104 C.ar    1  UNL1        0.1384
     17 N         141.6357  138.0311  163.6114 N.ar    1  UNL1       -0.2434
     18 O         144.8890  140.1736  164.3706 O.3     1  UNL1       -0.4668
     19 C         145.7091  141.2549  163.7318 C.3     1  UNL1        0.2527
     20 C         145.3128  141.8057  162.3940 C.3     1  UNL1        0.2526
     21 O         144.0963  141.2752  161.6951 O.3     1  UNL1       -0.4683
     22 C         137.5610  143.8323  164.3622 C.3     1  UNL1        0.0970
     23 C         138.6702  144.6159  164.9992 C.3     1  UNL1        0.1263
     24 N         140.0988  144.2341  164.7474 N.ar    1  UNL1       -0.2941
     25 C         140.7987  144.7205  163.5131 C.ar    1  UNL1        0.2610
     26 O         140.0701  145.5887  162.5306 O.2     1  UNL1       -0.2670
     27 C         142.2273  144.3387  163.2614 C.ar    1  UNL1        0.0608
     28 C         142.9559  143.4705  164.2438 C.ar    1  UNL1        0.0063
     29 C         142.2560  142.9840  165.4782 C.ar    1  UNL1        0.0161
     30 C         142.9846  142.1158  166.4606 C.ar    1  UNL1        0.0021
     31 C         142.2846  141.6294  167.6949 C.ar    1  UNL1        0.0104
     32 C         140.8561  142.0112  167.9467 C.ar    1  UNL1        0.0699
     33 C         140.1274  142.8794  166.9642 C.ar    1  UNL1        0.0275
     34 C         140.8274  143.3658  165.7299 C.ar    1  UNL1        0.0631
     35 C         140.1561  141.5248  169.1810 C.1     1  UNL1        0.1005
     36 N         139.4561  141.0383  170.4152 N.1     1  UNL1       -0.1908
@<TRIPOS>BOND
     1     7     8    1
     2     1     8    1
     3     1     2    1
     4     2     3    1
     5     3    22    1
     6    22    23    1
     7    23    24    1
     8    24    25   ar
     9    25    26    2
    10    25    27   ar
    11    27    28   ar
    12    28    29   ar
    13    29    30   ar
    14    30    31   ar
    15    31    32   ar
    16    32    35    1
    17    35    36    3
    18    32    33   ar
    19    33    34   ar
    20     3     4    1
    21     4     5    1
    22     5     6    1
    23     6     9    1
    24     9    11    1
    25    11    12    1
    26    12    13   ar
    27    13    14   ar
    28    14    15   ar
    29    15    16   ar
    30    16    17   ar
    31    15    18    1
    32    18    19    1
    33    19    20    1
    34    20    21    1
    35     6     1    1
    36    17    12   ar
    37    34    24   ar
    38    21    14    1
    39    34    29   ar
    40     9    10    1
@<TRIPOS>MOLECULE
*****
 36 40 0 0 0
SMALL
GASTEIGER

@<TRIPOS>ATOM
      1 C         142.6576  138.6331  163.3054 C.3     1  UNL1        0.1455
      2 C         143.7216  139.5528  163.8272 C.3     1  UNL1        0.1034
      3 N         144.4754  140.4404  162.8818 N.3     1  UNL1       -0.2689
      4 C         144.1652  140.4085  161.4145 C.3     1  UNL1        0.0737
      5 C         143.1012  139.4888  160.8927 C.3     1  UNL1        0.0356
      6 C         142.3474  138.6012  161.8383 C.3     1  UNL1        0.0846
      7 C         141.0522  138.3488  165.3283 C.3     1  UNL1        0.1741
      8 O         141.9039  137.7455  164.2509 O.3     1  UNL1       -0.3508
      9 N         141.2834  137.6815  161.3165 N.3     1  UNL1       -0.2915
     10 H         141.4290  136.7777  161.7662 H       1  UNL1        0.1236
     11 C         139.8358  138.0286  161.5007 C.3     1  UNL1        0.1153
     12 C         139.4128  139.4658  161.5757 C.ar    1  UNL1        0.0782
     13 C         138.8967  140.0293  162.8664 C.ar    1  UNL1        0.0562
     14 C         138.4737  141.4665  162.9415 C.ar    1  UNL1        0.1752
     15 C         138.5668  142.3402  161.7258 C.ar    1  UNL1        0.1914
     16 C         139.0830  141.7767  160.4350 C.ar    1  UNL1        0.1384
     17 N         139.5060  140.3395  160.3599 N.ar    1  UNL1       -0.2434
     18 O         138.1439  143.7773  161.8009 O.3     1  UNL1       -0.4668
     19 C         137.6277  144.3408  163.0916 C.3     1  UNL1        0.2527
     20 C         137.5345  143.4671  164.3074 C.3     1  UNL1        0.2526
     21 O         137.9575  142.0299  164.2323 O.3     1  UNL1       -0.4683
     22 C         145.5394  141.3600  163.4036 C.3     1  UNL1        0.0970
     23 C         145.1854  142.4333  164.3899 C.3     1  UNL1        0.1263
     24 N         143.8192  143.0523  164.3666 N.ar    1  UNL1       -0.2941
     25 C         143.4673  144.0532  163.3064 C.ar    1  UNL1        0.2610
     26 O         144.4815  144.4353  162.2693 O.2     1  UNL1       -0.2670
     27 C         142.1011  144.6722  163.2831 C.ar    1  UNL1        0.0608
     28 C         141.0869  144.2902  164.3201 C.ar    1  UNL1        0.0063
     29 C         141.4388  143.2891  165.3804 C.ar    1  UNL1        0.0161
     30 C         140.4246  142.9071  166.4174 C.ar    1  UNL1        0.0021
     31 C         140.7765  141.9062  167.4776 C.ar    1  UNL1        0.0104
     32 C         142.1427  141.2872  167.5009 C.ar    1  UNL1        0.0699
     33 C         143.1569  141.6692  166.4639 C.ar    1  UNL1        0.0275
     34 C         142.8050  142.6702  165.4037 C.ar    1  UNL1        0.0631
     35 C         142.4946  140.2862  168.5612 C.1     1  UNL1        0.1005
     36 N         142.8464  139.2852  169.6214 N.1     1  UNL1       -0.1908
@<TRIPOS>BOND
     1     7     8    1
     2     1     8    1
     3     1     2    1
     4     2     3    1
     5     3    22    1
     6    22    23    1
     7    23    24    1
     8    24    25   ar
     9    25    26    2
    10    25    27   ar
    11    27    28   ar
    12    28    29   ar
    13    29    30   ar
    14    30    31   ar
    15    31    32   ar
    16    32    35    1
    17    35    36    3
    18    32    33   ar
    19    33    34   ar
    20     3     4    1
    21     4     5    1
    22     5     6    1
    23     6     9    1
    24     9    11    1
    25    11    12    1
    26    12    13   ar
    27    13    14   ar
    28    14    15   ar
    29    15    16   ar
    30    16    17   ar
    31    15    18    1
    32    18    19    1
    33    19    20    1
    34    20    21    1
    35     6     1    1
    36    17    12   ar
    37    34    24   ar
    38    21    14    1
    39    34    29   ar
    40     9    10    1
@<TRIPOS>MOLECULE
*****
 36 40 0 0 0
SMALL
GASTEIGER

@<TRIPOS>ATOM
      1 C         142.9799  139.5328  162.0335 C.3     1  UNL1        0.1455
      2 C         141.8081  138.7331  162.5208 C.3     1  UNL1        0.1034
      3 N         141.7878  138.2132  163.9276 N.3     1  UNL1       -0.2689
      4 C         142.9394  138.4929  164.8472 C.3     1  UNL1        0.0737
      5 C         144.1113  139.2925  164.3600 C.3     1  UNL1        0.0356
      6 C         144.1315  139.8124  162.9530 C.3     1  UNL1        0.0846
      7 C         143.2990  139.1233  159.4878 C.3     1  UNL1        0.1741
      8 O         143.0002  140.0527  160.6267 O.3     1  UNL1       -0.3508
      9 N         145.3033  140.6121  162.4658 N.3     1  UNL1       -0.2915
     10 H         145.2934  140.5583  161.4472 H       1  UNL1        0.1236
     11 C         145.4201  142.0646  162.8216 C.3     1  UNL1        0.1153
     12 C         144.1970  142.9326  162.8416 C.ar    1  UNL1        0.0782
     13 C         143.5834  143.3937  161.5528 C.ar    1  UNL1        0.0562
     14 C         142.3602  144.2617  161.5728 C.ar    1  UNL1        0.1752
     15 C         141.7506  144.6686  162.8815 C.ar    1  UNL1        0.1914
     16 C         142.3642  144.2075  164.1703 C.ar    1  UNL1        0.1384
     17 N         143.5873  143.3395  164.1504 N.ar    1  UNL1       -0.2434
     18 O         140.5274  145.5366  162.9014 O.3     1  UNL1       -0.4668
     19 C         139.9138  145.9977  161.6127 C.3     1  UNL1        0.2527
     20 C         140.5235  145.5907  160.3039 C.3     1  UNL1        0.2526
     21 O         141.7466  144.7227  160.2840 O.3     1  UNL1       -0.4683
     22 C         140.6160  137.4136  164.4148 C.3     1  UNL1        0.0970
     23 C         139.5157  138.0861  165.1812 C.3     1  UNL1        0.1263
     24 N         139.3328  139.5716  165.0829 N.ar    1  UNL1       -0.2941
     25 C         138.5210  140.1549  163.9646 C.ar    1  UNL1        0.2610
     26 O         137.8921  139.2527  162.9445 O.2     1  UNL1       -0.2670
     27 C         138.3380  141.6405  163.8663 C.ar    1  UNL1        0.0608
     28 C         138.9668  142.5427  164.8863 C.ar    1  UNL1        0.0063
     29 C         139.7787  141.9594  166.0047 C.ar    1  UNL1        0.0161
     30 C         140.4075  142.8617  167.0248 C.ar    1  UNL1        0.0021
     31 C         141.2193  142.2784  168.1431 C.ar    1  UNL1        0.0104
     32 C         141.4023  140.7928  168.2414 C.ar    1  UNL1        0.0699
     33 C         140.7734  139.8906  167.2214 C.ar    1  UNL1        0.0275
     34 C         139.9617  140.4739  166.1030 C.ar    1  UNL1        0.0631
     35 C         142.2141  140.2095  169.3598 C.1     1  UNL1        0.1005
     36 N         143.0259  139.6263  170.4782 N.1     1  UNL1       -0.1908
@<TRIPOS>BOND
     1     7     8    1
     2     1     8    1
     3     1     2    1
     4     2     3    1
     5     3    22    1
     6    22    23    1
     7    23    24    1
     8    24    25   ar
     9    25    26    2
    10    25    27   ar
    11    27    28   ar
    12    28    29   ar
    13    29    30   ar
    14    30    31   ar
    15    31    32   ar
    16    32    35    1
    17    35    36    3
    18    32    33   ar
    19    33    34   ar
    20     3     4    1
    21     4     5    1
    22     5     6    1
    23     6     9    1
    24     9    11    1
    25    11    12    1
    26    12    13   ar
    27    13    14   ar
    28    14    15   ar
    29    15    16   ar
    30    16    17   ar
    31    15    18    1
    32    18    19    1
    33    19    20    1
    34    20    21    1
    35     6     1    1
    36    17    12   ar
    37    34    24   ar
    38    21    14    1
    39    34    29   ar
    40     9    10    1
@<TRIPOS>MOLECULE
*****
 36 40 0 0 0
SMALL
GASTEIGER

@<TRIPOS>ATOM
      1 C         141.6157  143.7787  164.5160 C.3     1  UNL1        0.1455
      2 C         142.3170  142.5084  164.8961 C.3     1  UNL1        0.1034
      3 N         143.5613  142.0922  164.1692 N.3     1  UNL1       -0.2689
      4 C         144.1045  142.9464  163.0621 C.3     1  UNL1        0.0737
      5 C         143.4032  144.2167  162.6820 C.3     1  UNL1        0.0356
      6 C         142.1588  144.6329  163.4090 C.3     1  UNL1        0.0846
      7 C         139.6348  143.2052  166.0962 C.3     1  UNL1        0.1741
      8 O         140.3714  144.1949  165.2428 O.3     1  UNL1       -0.3508
      9 N         141.4575  145.9032  163.0289 N.3     1  UNL1       -0.2915
     10 H         142.1621  146.5179  162.6214 H       1  UNL1        0.1236
     11 C         140.3069  145.8658  162.0671 C.3     1  UNL1        0.1153
     12 C         139.5436  144.5913  161.8600 C.ar    1  UNL1        0.0782
     13 C         139.8969  143.6823  160.7204 C.ar    1  UNL1        0.0562
     14 C         139.1336  142.4077  160.5132 C.ar    1  UNL1        0.1752
     15 C         138.0171  142.0422  161.4458 C.ar    1  UNL1        0.1914
     16 C         137.6638  142.9512  162.5855 C.ar    1  UNL1        0.1384
     17 N         138.4271  144.2258  162.7926 N.ar    1  UNL1       -0.2434
     18 O         137.2538  140.7676  161.2386 O.3     1  UNL1       -0.4668
     19 C         137.6070  139.8586  160.0990 C.3     1  UNL1        0.2527
     20 C         138.7236  140.2242  159.1664 C.3     1  UNL1        0.2526
     21 O         139.4869  141.4987  159.3735 O.3     1  UNL1       -0.4683
     22 C         144.2626  140.8219  164.5493 C.3     1  UNL1        0.0970
     23 C         143.5411  139.7769  165.3478 C.3     1  UNL1        0.1263
     24 N         142.3721  139.0510  164.7506 N.ar    1  UNL1       -0.2941
     25 C         142.5184  138.3501  163.4325 C.ar    1  UNL1        0.2610
     26 O         143.8336  138.3750  162.7116 O.2     1  UNL1       -0.2670
     27 C         141.3494  137.6243  162.8353 C.ar    1  UNL1        0.0608
     28 C         140.0342  137.5994  163.5561 C.ar    1  UNL1        0.0063
     29 C         139.8879  138.3003  164.8742 C.ar    1  UNL1        0.0161
     30 C         138.5728  138.2754  165.5950 C.ar    1  UNL1        0.0021
     31 C         138.4265  138.9763  166.9130 C.ar    1  UNL1        0.0104
     32 C         139.5955  139.7021  167.5103 C.ar    1  UNL1        0.0699
     33 C         140.9107  139.7271  166.7895 C.ar    1  UNL1        0.0275
     34 C         141.0569  139.0261  165.4714 C.ar    1  UNL1        0.0631
     35 C         139.4492  140.4031  168.8284 C.1     1  UNL1        0.1005
     36 N         139.3029  141.1040  170.1464 N.1     1  UNL1       -0.1908
@<TRIPOS>BOND
     1     7     8    1
     2     1     8    1
     3     1     2    1
     4     2     3    1
     5     3    22    1
     6    22    23    1
     7    23    24    1
     8    24    25   ar
     9    25    26    2
    10    25    27   ar
    11    27    28   ar
    12    28    29   ar
    13    29    30   ar
    14    30    31   ar
    15    31    32   ar
    16    32    35    1
    17    35    36    3
    18    32    33   ar
    19    33    34   ar
    20     3     4    1
    21     4     5    1
    22     5     6    1
    23     6     9    1
    24     9    11    1
    25    11    12    1
    26    12    13   ar
    27    13    14   ar
    28    14    15   ar
    29    15    16   ar
    30    16    17   ar
    31    15    18    1
    32    18    19    1
    33    19    20    1
    34    20    21    1
    35     6     1    1
    36    17    12   ar
    37    34    24   ar
    38    21    14    1
    39    34    29   ar
    40     9    10    1
