@<TRIPOS>MOLECULE
*****
 33 36 0 0 0
SMALL
GASTEIGER

@<TRIPOS>ATOM
      1 N         139.7453  141.3276  162.7154 N.ar    1  UNL1       -0.2699
      2 C         141.0253  141.2159  161.9415 C.ar    1  UNL1        0.0974
      3 C         141.0222  141.4124  160.4544 C.ar    1  UNL1        0.1092
      4 CL        142.3023  141.3006  159.6804 Cl      1  UNL1       -0.0775
      5 C         139.7391  141.7205  159.7412 C.ar    1  UNL1        0.1551
      6 C         138.4591  141.8322  160.5152 C.ar    1  UNL1        0.0988
      7 C         138.4622  141.6357  162.0023 C.ar    1  UNL1        0.2680
      8 O         137.1821  141.7475  162.7762 O.2     1  UNL1       -0.2665
      9 C         139.7546  140.7384  167.1766 C.ar    1  UNL1        0.1081
     10 C         139.3186  139.6228  166.2737 C.ar    1  UNL1        0.0200
     11 C         139.3155  139.8193  164.7866 C.ar    1  UNL1        0.0212
     12 C         139.7484  141.1312  164.2025 C.ar    1  UNL1        0.0943
     13 C         140.1845  142.2468  165.1054 C.ar    1  UNL1        0.1575
     14 F         140.6174  143.5588  164.5213 F       1  UNL1       -0.2026
     15 C         140.1876  142.0504  166.5925 C.ar    1  UNL1        0.0495
     16 C         139.7609  140.3456  170.1508 C.3     1  UNL1        0.1816
     17 S         139.7578  140.5420  168.6637 S.O2    1  UNL1        0.0105
     18 O         138.7420  139.4474  168.5213 O.2     1  UNL1       -0.1686
     19 O         140.7735  141.6365  168.8062 O.2     1  UNL1       -0.1686
     20 O         139.7360  141.9169  158.2542 O.3     1  UNL1       -0.4780
     21 C         139.6343  143.2990  157.6804 C.3     1  UNL1        0.1694
     22 C         140.3081  144.4485  158.3694 C.3     1  UNL1        0.0651
     23 C         140.2064  145.8308  157.7956 C.3     1  UNL1        0.0973
     24 N         139.4310  146.0634  156.5328 N.pl3   1  UNL1       -0.2780
     25 C         138.7572  144.9139  155.8439 C.3     1  UNL1        0.0973
     26 C         138.8589  143.5318  156.4176 C.3     1  UNL1        0.0651
     27 C         139.3293  147.4457  155.9590 C.ar    1  UNL1        0.2202
     28 N         139.9542  147.7541  154.6307 N.ar    1  UNL1       -0.2112
     29 C         139.8526  149.1362  154.0569 C.ar    1  UNL1        0.1147
     30 C         139.1260  150.2099  154.8114 C.ar    1  UNL1        0.0960
     31 CL        139.0243  151.5921  154.2375 Cl      1  UNL1       -0.0790
     32 C         138.5010  149.9015  156.1396 C.ar    1  UNL1        0.1147
     33 N         138.6027  148.5193  156.7135 N.ar    1  UNL1       -0.2112
@<TRIPOS>BOND
     1    16    17    1
     2    17    18    2
     3    17    19    2
     4    17     9    1
     5     9    10   ar
     6    10    11   ar
     7    11    12   ar
     8    12     1    1
     9     1     2   ar
    10     2     3   ar
    11     3     4    1
    12     3     5   ar
    13     5    20    1
    14    20    21    1
    15    21    22    1
    16    22    23    1
    17    23    24    1
    18    24    27    1
    19    27    28   ar
    20    28    29   ar
    21    29    30   ar
    22    30    31    1
    23    30    32   ar
    24    32    33   ar
    25    24    25    1
    26    25    26    1
    27     5     6   ar
    28     6     7   ar
    29     7     8    2
    30    12    13   ar
    31    13    14    1
    32    13    15   ar
    33    15     9   ar
    34     7     1   ar
    35    26    21    1
    36    33    27   ar
@<TRIPOS>MOLECULE
*****
 33 36 0 0 0
SMALL
GASTEIGER

@<TRIPOS>ATOM
      1 N         139.8328  141.3976  162.8430 N.ar    1  UNL1       -0.2699
      2 C         141.0842  141.1321  162.0597 C.ar    1  UNL1        0.0974
      3 C         141.0878  141.3071  160.5700 C.ar    1  UNL1        0.1092
      4 CL        142.3393  141.0416  159.7867 Cl      1  UNL1       -0.0775
      5 C         139.8401  141.7476  159.8635 C.ar    1  UNL1        0.1551
      6 C         138.5888  142.0131  160.6468 C.ar    1  UNL1        0.0988
      7 C         138.5851  141.8381  162.1365 C.ar    1  UNL1        0.2680
      8 O         137.3337  142.1037  162.9198 O.2     1  UNL1       -0.2665
      9 C         139.8219  140.8727  167.3123 C.ar    1  UNL1        0.1081
     10 C         140.4963  142.0637  166.6987 C.ar    1  UNL1        0.0200
     11 C         140.4999  142.2387  165.2089 C.ar    1  UNL1        0.0212
     12 C         139.8292  141.2226  164.3328 C.ar    1  UNL1        0.0943
     13 C         139.1547  140.0316  164.9464 C.ar    1  UNL1        0.1575
     14 F         138.4839  139.0155  164.0702 F       1  UNL1       -0.2026
     15 C         139.1511  139.8566  166.4361 C.ar    1  UNL1        0.0495
     16 C         139.8146  140.5227  170.2918 C.3     1  UNL1        0.1816
     17 S         139.8182  140.6977  168.8020 S.O2    1  UNL1        0.0105
     18 O         138.8373  139.5709  168.6673 O.2     1  UNL1       -0.1686
     19 O         140.7991  141.8245  168.9368 O.2     1  UNL1       -0.1686
     20 O         139.8438  141.9226  158.3737 O.3     1  UNL1       -0.4780
     21 C         139.7299  143.2951  157.7795 C.3     1  UNL1        0.1694
     22 C         138.9124  143.5106  156.5405 C.3     1  UNL1        0.0651
     23 C         138.7985  144.8832  155.9463 C.3     1  UNL1        0.0973
     24 N         139.5023  146.0403  156.5911 N.pl3   1  UNL1       -0.2780
     25 C         140.3199  145.8249  157.8301 C.3     1  UNL1        0.0973
     26 C         140.4337  144.4523  158.4243 C.3     1  UNL1        0.0651
     27 C         139.3885  147.4129  155.9969 C.ar    1  UNL1        0.2202
     28 N         140.0628  147.7243  154.6937 N.ar    1  UNL1       -0.2112
     29 C         139.9491  149.0968  154.0995 C.ar    1  UNL1        0.1147
     30 C         139.1609  150.1580  154.8084 C.ar    1  UNL1        0.0960
     31 CL        139.0471  151.5306  154.2142 Cl      1  UNL1       -0.0790
     32 C         138.4865  149.8466  156.1116 C.ar    1  UNL1        0.1147
     33 N         138.6003  148.4741  156.7058 N.ar    1  UNL1       -0.2112
@<TRIPOS>BOND
     1    16    17    1
     2    17    18    2
     3    17    19    2
     4    17     9    1
     5     9    10   ar
     6    10    11   ar
     7    11    12   ar
     8    12     1    1
     9     1     2   ar
    10     2     3   ar
    11     3     4    1
    12     3     5   ar
    13     5    20    1
    14    20    21    1
    15    21    22    1
    16    22    23    1
    17    23    24    1
    18    24    27    1
    19    27    28   ar
    20    28    29   ar
    21    29    30   ar
    22    30    31    1
    23    30    32   ar
    24    32    33   ar
    25    24    25    1
    26    25    26    1
    27     5     6   ar
    28     6     7   ar
    29     7     8    2
    30    12    13   ar
    31    13    14    1
    32    13    15   ar
    33    15     9   ar
    34     7     1   ar
    35    26    21    1
    36    33    27   ar
@<TRIPOS>MOLECULE
*****
 33 36 0 0 0
SMALL
GASTEIGER

@<TRIPOS>ATOM
      1 N         142.4791  139.3530  163.8516 N.ar    1  UNL1       -0.2699
      2 C         143.2310  140.4500  163.1580 C.ar    1  UNL1        0.0974
      3 C         143.6696  140.2748  161.7343 C.ar    1  UNL1        0.1092
      4 CL        144.4215  141.3719  161.0407 Cl      1  UNL1       -0.0775
      5 C         143.3563  139.0025  161.0042 C.ar    1  UNL1        0.1551
      6 C         142.6044  137.9055  161.6978 C.ar    1  UNL1        0.0988
      7 C         142.1658  138.0807  163.1215 C.ar    1  UNL1        0.2680
      8 O         141.4139  136.9836  163.8151 O.2     1  UNL1       -0.2665
      9 C         141.1632  139.8788  168.1227 C.ar    1  UNL1        0.1081
     10 C         140.2519  140.2830  167.0020 C.ar    1  UNL1        0.0200
     11 C         140.6905  140.1078  165.5783 C.ar    1  UNL1        0.0212
     12 C         142.0405  139.5283  165.2753 C.ar    1  UNL1        0.0943
     13 C         142.9518  139.1240  166.3960 C.ar    1  UNL1        0.1575
     14 F         144.3018  138.5445  166.0931 F       1  UNL1       -0.2026
     15 C         142.5132  139.2993  167.8197 C.ar    1  UNL1        0.0495
     16 C         140.2860  140.2293  170.9701 C.3     1  UNL1        0.1816
     17 S         140.7246  140.0540  169.5464 S.O2    1  UNL1        0.0105
     18 O         142.1427  140.3309  169.9492 O.2     1  UNL1       -0.1686
     19 O         139.3065  139.7771  169.1436 O.2     1  UNL1       -0.1686
     20 O         143.7949  138.8272  159.5805 O.3     1  UNL1       -0.4780
     21 C         142.7797  138.5502  158.5117 C.3     1  UNL1        0.1694
     22 C         142.8151  137.2514  157.7621 C.3     1  UNL1        0.0651
     23 C         141.7998  136.9744  156.6932 C.3     1  UNL1        0.0973
     24 N         140.7492  137.9962  156.3739 N.pl3   1  UNL1       -0.2780
     25 C         140.7138  139.2950  157.1234 C.3     1  UNL1        0.0973
     26 C         141.7290  139.5720  158.1923 C.3     1  UNL1        0.0651
     27 C         139.7339  137.7192  155.3050 C.ar    1  UNL1        0.2202
     28 N         140.1306  136.9636  154.0714 N.ar    1  UNL1       -0.2112
     29 C         139.1154  136.6866  153.0025 C.ar    1  UNL1        0.1147
     30 C         137.7034  137.1652  153.1672 C.ar    1  UNL1        0.0960
     31 CL        136.6881  136.8882  152.0983 Cl      1  UNL1       -0.0790
     32 C         137.3066  137.9208  154.4007 C.ar    1  UNL1        0.1147
     33 N         138.3219  138.1978  155.4696 N.ar    1  UNL1       -0.2112
@<TRIPOS>BOND
     1    16    17    1
     2    17    18    2
     3    17    19    2
     4    17     9    1
     5     9    10   ar
     6    10    11   ar
     7    11    12   ar
     8    12     1    1
     9     1     2   ar
    10     2     3   ar
    11     3     4    1
    12     3     5   ar
    13     5    20    1
    14    20    21    1
    15    21    22    1
    16    22    23    1
    17    23    24    1
    18    24    27    1
    19    27    28   ar
    20    28    29   ar
    21    29    30   ar
    22    30    31    1
    23    30    32   ar
    24    32    33   ar
    25    24    25    1
    26    25    26    1
    27     5     6   ar
    28     6     7   ar
    29     7     8    2
    30    12    13   ar
    31    13    14    1
    32    13    15   ar
    33    15     9   ar
    34     7     1   ar
    35    26    21    1
    36    33    27   ar
@<TRIPOS>MOLECULE
*****
 33 36 0 0 0
SMALL
GASTEIGER

@<TRIPOS>ATOM
      1 N         142.3645  136.6857  156.0876 N.ar    1  UNL1       -0.2699
      2 C         140.9389  137.0784  156.3394 C.ar    1  UNL1        0.0974
      3 C         140.5667  138.5280  156.4389 C.ar    1  UNL1        0.1092
      4 CL        139.1410  138.9207  156.6907 Cl      1  UNL1       -0.0775
      5 C         141.6201  139.5850  156.2867 C.ar    1  UNL1        0.1551
      6 C         143.0457  139.1923  156.0349 C.ar    1  UNL1        0.0988
      7 C         143.4179  137.7426  155.9354 C.ar    1  UNL1        0.2680
      8 O         144.8436  137.3499  155.6836 O.2     1  UNL1       -0.2665
      9 C         143.4812  132.3366  155.7889 C.ar    1  UNL1        0.1081
     10 C         142.9611  133.0619  154.5834 C.ar    1  UNL1        0.0200
     11 C         142.5889  134.5116  154.6829 C.ar    1  UNL1        0.0212
     12 C         142.7367  135.2360  155.9880 C.ar    1  UNL1        0.0943
     13 C         143.2568  134.5107  157.1936 C.ar    1  UNL1        0.1575
     14 F         143.4047  135.2351  158.4988 F       1  UNL1       -0.2026
     15 C         143.6290  133.0610  157.0940 C.ar    1  UNL1        0.0495
     16 C         144.2256  129.4373  155.5898 C.3     1  UNL1        0.1816
     17 S         143.8534  130.8870  155.6894 S.O2    1  UNL1        0.0105
     18 O         145.2917  131.2399  155.9272 O.2     1  UNL1       -0.1686
     19 O         142.4150  130.5340  155.4515 O.2     1  UNL1       -0.1686
     20 O         141.2479  141.0347  156.3862 O.3     1  UNL1       -0.4780
     21 C         140.8485  141.6173  157.7095 C.3     1  UNL1        0.1694
     22 C         139.7888  142.6770  157.7732 C.3     1  UNL1        0.0651
     23 C         139.3894  143.2596  159.0966 C.3     1  UNL1        0.0973
     24 N         140.0497  142.7825  160.3560 N.pl3   1  UNL1       -0.2780
     25 C         141.1095  141.7229  160.2923 C.3     1  UNL1        0.0973
     26 C         141.5088  141.1402  158.9690 C.3     1  UNL1        0.0651
     27 C         139.6504  143.3652  161.6794 C.ar    1  UNL1        0.2202
     28 N         140.6979  143.6898  162.7027 N.ar    1  UNL1       -0.2112
     29 C         140.2986  144.2724  164.0260 C.ar    1  UNL1        0.1147
     30 C         138.8518  144.5304  164.3259 C.ar    1  UNL1        0.0960
     31 CL        138.4524  145.1130  165.6492 Cl      1  UNL1       -0.0790
     32 C         137.8042  144.2057  163.3026 C.ar    1  UNL1        0.1147
     33 N         138.2035  143.6231  161.9793 N.ar    1  UNL1       -0.2112
@<TRIPOS>BOND
     1    16    17    1
     2    17    18    2
     3    17    19    2
     4    17     9    1
     5     9    10   ar
     6    10    11   ar
     7    11    12   ar
     8    12     1    1
     9     1     2   ar
    10     2     3   ar
    11     3     4    1
    12     3     5   ar
    13     5    20    1
    14    20    21    1
    15    21    22    1
    16    22    23    1
    17    23    24    1
    18    24    27    1
    19    27    28   ar
    20    28    29   ar
    21    29    30   ar
    22    30    31    1
    23    30    32   ar
    24    32    33   ar
    25    24    25    1
    26    25    26    1
    27     5     6   ar
    28     6     7   ar
    29     7     8    2
    30    12    13   ar
    31    13    14    1
    32    13    15   ar
    33    15     9   ar
    34     7     1   ar
    35    26    21    1
    36    33    27   ar
@<TRIPOS>MOLECULE
*****
 33 36 0 0 0
SMALL
GASTEIGER

@<TRIPOS>ATOM
      1 N         143.0029  140.9471  163.8176 N.ar    1  UNL1       -0.2699
      2 C         141.7989  141.1937  162.9577 C.ar    1  UNL1        0.0974
      3 C         141.9426  141.2547  161.4658 C.ar    1  UNL1        0.1092
      4 CL        140.7385  141.5013  160.6059 Cl      1  UNL1       -0.0775
      5 C         143.2902  141.0691  160.8339 C.ar    1  UNL1        0.1551
      6 C         144.4942  140.8224  161.6938 C.ar    1  UNL1        0.0988
      7 C         144.3506  140.7615  163.1857 C.ar    1  UNL1        0.2680
      8 O         145.5547  140.5149  164.0456 O.2     1  UNL1       -0.2665
      9 C         142.5721  140.7642  168.2932 C.ar    1  UNL1        0.1081
     10 C         142.7014  142.0911  167.6058 C.ar    1  UNL1        0.0200
     11 C         142.8450  142.1521  166.1139 C.ar    1  UNL1        0.0212
     12 C         142.8593  140.8862  165.3095 C.ar    1  UNL1        0.0943
     13 C         142.7300  139.5593  165.9969 C.ar    1  UNL1        0.1575
     14 F         142.7442  138.2932  165.1924 F       1  UNL1       -0.2026
     15 C         142.5863  139.4983  167.4888 C.ar    1  UNL1        0.0495
     16 C         142.2848  140.6423  171.2769 C.3     1  UNL1        0.1816
     17 S         142.4284  140.7033  169.7851 S.O2    1  UNL1        0.0105
     18 O         141.8485  142.0866  169.7858 O.2     1  UNL1       -0.1686
     19 O         143.0084  139.3199  169.7844 O.2     1  UNL1       -0.1686
     20 O         143.4338  141.1300  159.3420 O.3     1  UNL1       -0.4780
     21 C         143.2716  139.8849  158.5214 C.3     1  UNL1        0.1694
     22 C         143.5491  139.9165  157.0477 C.3     1  UNL1        0.0651
     23 C         143.3869  138.6714  156.2271 C.3     1  UNL1        0.0973
     24 N         142.9472  137.3947  156.8803 N.pl3   1  UNL1       -0.2780
     25 C         142.6697  137.3631  158.3540 C.3     1  UNL1        0.0973
     26 C         142.8319  138.6082  159.1746 C.3     1  UNL1        0.0651
     27 C         142.7849  136.1495  156.0597 C.ar    1  UNL1        0.2202
     28 N         142.8824  134.8028  156.7130 N.ar    1  UNL1       -0.2112
     29 C         142.7201  133.5576  155.8925 C.ar    1  UNL1        0.1147
     30 C         142.4605  133.6592  154.4186 C.ar    1  UNL1        0.0960
     31 CL        142.2983  132.4141  153.5981 Cl      1  UNL1       -0.0790
     32 C         142.3631  135.0060  153.7653 C.ar    1  UNL1        0.1147
     33 N         142.5253  136.2511  154.5858 N.ar    1  UNL1       -0.2112
@<TRIPOS>BOND
     1    16    17    1
     2    17    18    2
     3    17    19    2
     4    17     9    1
     5     9    10   ar
     6    10    11   ar
     7    11    12   ar
     8    12     1    1
     9     1     2   ar
    10     2     3   ar
    11     3     4    1
    12     3     5   ar
    13     5    20    1
    14    20    21    1
    15    21    22    1
    16    22    23    1
    17    23    24    1
    18    24    27    1
    19    27    28   ar
    20    28    29   ar
    21    29    30   ar
    22    30    31    1
    23    30    32   ar
    24    32    33   ar
    25    24    25    1
    26    25    26    1
    27     5     6   ar
    28     6     7   ar
    29     7     8    2
    30    12    13   ar
    31    13    14    1
    32    13    15   ar
    33    15     9   ar
    34     7     1   ar
    35    26    21    1
    36    33    27   ar
@<TRIPOS>MOLECULE
*****
 33 36 0 0 0
SMALL
GASTEIGER

@<TRIPOS>ATOM
      1 N         140.5152  139.1911  161.6885 N.ar    1  UNL1       -0.2699
      2 C         141.7986  139.6123  161.0364 C.ar    1  UNL1        0.0974
      3 C         142.0020  139.3888  159.5671 C.ar    1  UNL1        0.1092
      4 CL        143.2855  139.8101  158.9150 Cl      1  UNL1       -0.0775
      5 C         140.9219  138.7439  158.7501 C.ar    1  UNL1        0.1551
      6 C         139.6385  138.3226  159.4022 C.ar    1  UNL1        0.0988
      7 C         139.4352  138.5462  160.8715 C.ar    1  UNL1        0.2680
      8 O         138.1517  138.1249  161.5236 O.2     1  UNL1       -0.2665
      9 C         139.9051  139.8618  166.0962 C.ar    1  UNL1        0.1081
     10 C         139.7272  140.9978  165.1330 C.ar    1  UNL1        0.0200
     11 C         139.9306  140.7742  163.6638 C.ar    1  UNL1        0.0212
     12 C         140.3118  139.4147  163.1578 C.ar    1  UNL1        0.0943
     13 C         140.4898  138.2787  164.1210 C.ar    1  UNL1        0.1575
     14 F         140.8711  136.9190  163.6150 F       1  UNL1       -0.2026
     15 C         140.2864  138.5023  165.5902 C.ar    1  UNL1        0.0495
     16 C         139.4984  140.3090  169.0347 C.3     1  UNL1        0.1816
     17 S         139.7018  140.0854  167.5655 S.O2    1  UNL1        0.0105
     18 O         140.8457  141.0556  167.5762 O.2     1  UNL1       -0.1686
     19 O         138.5578  139.1152  167.5548 O.2     1  UNL1       -0.1686
     20 O         141.1253  138.5203  157.2808 O.3     1  UNL1       -0.4780
     21 C         141.6255  137.1956  156.7859 C.3     1  UNL1        0.1694
     22 C         140.8433  136.4359  155.7559 C.3     1  UNL1        0.0651
     23 C         141.3435  135.1111  155.2610 C.3     1  UNL1        0.0973
     24 N         142.6259  134.5462  155.7962 N.pl3   1  UNL1       -0.2780
     25 C         143.4080  135.3059  156.8262 C.3     1  UNL1        0.0973
     26 C         142.9079  136.6306  157.3211 C.3     1  UNL1        0.0651
     27 C         143.1261  133.2214  155.3013 C.ar    1  UNL1        0.2202
     28 N         142.6477  132.6831  153.9855 N.ar    1  UNL1       -0.2112
     29 C         143.1479  131.3584  153.4906 C.ar    1  UNL1        0.1147
     30 C         144.1265  130.5720  154.3115 C.ar    1  UNL1        0.0960
     31 CL        144.6267  129.2473  153.8166 Cl      1  UNL1       -0.0790
     32 C         144.6049  131.1103  155.6273 C.ar    1  UNL1        0.1147
     33 N         144.1047  132.4350  156.1222 N.ar    1  UNL1       -0.2112
@<TRIPOS>BOND
     1    16    17    1
     2    17    18    2
     3    17    19    2
     4    17     9    1
     5     9    10   ar
     6    10    11   ar
     7    11    12   ar
     8    12     1    1
     9     1     2   ar
    10     2     3   ar
    11     3     4    1
    12     3     5   ar
    13     5    20    1
    14    20    21    1
    15    21    22    1
    16    22    23    1
    17    23    24    1
    18    24    27    1
    19    27    28   ar
    20    28    29   ar
    21    29    30   ar
    22    30    31    1
    23    30    32   ar
    24    32    33   ar
    25    24    25    1
    26    25    26    1
    27     5     6   ar
    28     6     7   ar
    29     7     8    2
    30    12    13   ar
    31    13    14    1
    32    13    15   ar
    33    15     9   ar
    34     7     1   ar
    35    26    21    1
    36    33    27   ar
@<TRIPOS>MOLECULE
*****
 33 36 0 0 0
SMALL
GASTEIGER

@<TRIPOS>ATOM
      1 N         139.1301  140.7846  164.0416 N.ar    1  UNL1       -0.2699
      2 C         139.7874  139.7764  163.1463 C.ar    1  UNL1        0.0974
      3 C         139.4234  139.7142  161.6925 C.ar    1  UNL1        0.1092
      4 CL        140.0808  138.7060  160.7973 Cl      1  UNL1       -0.0775
      5 C         138.4022  140.6602  161.1339 C.ar    1  UNL1        0.1551
      6 C         137.7449  141.6684  162.0291 C.ar    1  UNL1        0.0988
      7 C         138.1088  141.7306  163.4829 C.ar    1  UNL1        0.2680
      8 O         137.4514  142.7388  164.3782 O.2     1  UNL1       -0.2665
      9 C         140.2218  140.9712  168.4031 C.ar    1  UNL1        0.1081
     10 C         140.8285  141.9440  167.4358 C.ar    1  UNL1        0.0200
     11 C         140.4645  141.8818  165.9820 C.ar    1  UNL1        0.0212
     12 C         139.4940  140.8468  165.4954 C.ar    1  UNL1        0.0943
     13 C         138.8874  139.8740  166.4627 C.ar    1  UNL1        0.1575
     14 F         137.9167  138.8390  165.9761 F       1  UNL1       -0.2026
     15 C         139.2513  139.9362  167.9165 C.ar    1  UNL1        0.0495
     16 C         140.9497  141.0956  171.3108 C.3     1  UNL1        0.1816
     17 S         140.5858  141.0334  169.8570 S.O2    1  UNL1        0.0105
     18 O         139.1781  140.6688  170.2249 O.2     1  UNL1       -0.1686
     19 O         141.9935  141.3980  169.4890 O.2     1  UNL1       -0.1686
     20 O         138.0383  140.5980  159.6800 O.3     1  UNL1       -0.4780
     21 C         138.4191  141.7221  158.7628 C.3     1  UNL1        0.1694
     22 C         139.5598  142.6281  159.1203 C.3     1  UNL1        0.0651
     23 C         139.9406  143.7523  158.2030 C.3     1  UNL1        0.0973
     24 N         139.1808  143.9703  156.9282 N.pl3   1  UNL1       -0.2780
     25 C         138.0400  143.0642  156.5707 C.3     1  UNL1        0.0973
     26 C         137.6592  141.9401  157.4880 C.3     1  UNL1        0.0651
     27 C         139.5616  145.0944  156.0109 C.ar    1  UNL1        0.2202
     28 N         140.6255  144.8884  154.9737 N.ar    1  UNL1       -0.2112
     29 C         141.0063  146.0124  154.0565 C.ar    1  UNL1        0.1147
     30 C         140.3233  147.3425  154.1763 C.ar    1  UNL1        0.0960
     31 CL        140.7041  148.4666  153.2590 Cl      1  UNL1       -0.0790
     32 C         139.2594  147.5485  155.2135 C.ar    1  UNL1        0.1147
     33 N         138.8785  146.4244  156.1308 N.ar    1  UNL1       -0.2112
@<TRIPOS>BOND
     1    16    17    1
     2    17    18    2
     3    17    19    2
     4    17     9    1
     5     9    10   ar
     6    10    11   ar
     7    11    12   ar
     8    12     1    1
     9     1     2   ar
    10     2     3   ar
    11     3     4    1
    12     3     5   ar
    13     5    20    1
    14    20    21    1
    15    21    22    1
    16    22    23    1
    17    23    24    1
    18    24    27    1
    19    27    28   ar
    20    28    29   ar
    21    29    30   ar
    22    30    31    1
    23    30    32   ar
    24    32    33   ar
    25    24    25    1
    26    25    26    1
    27     5     6   ar
    28     6     7   ar
    29     7     8    2
    30    12    13   ar
    31    13    14    1
    32    13    15   ar
    33    15     9   ar
    34     7     1   ar
    35    26    21    1
    36    33    27   ar
@<TRIPOS>MOLECULE
*****
 33 36 0 0 0
SMALL
GASTEIGER

@<TRIPOS>ATOM
      1 N         139.1263  146.1218  155.6606 N.ar    1  UNL1       -0.2699
      2 C         137.8943  145.3367  155.3206 C.ar    1  UNL1        0.0974
      3 C         137.8161  143.8783  155.6628 C.ar    1  UNL1        0.1092
      4 CL        136.5840  143.0931  155.3227 Cl      1  UNL1       -0.0775
      5 C         138.9700  143.2051  156.3450 C.ar    1  UNL1        0.1551
      6 C         140.2020  143.9902  156.6850 C.ar    1  UNL1        0.0988
      7 C         140.2801  145.4486  156.3428 C.ar    1  UNL1        0.2680
      8 O         141.5122  146.2338  156.6829 O.2     1  UNL1       -0.2665
      9 C         139.3608  150.4969  154.6342 C.ar    1  UNL1        0.1081
     10 C         138.6013  150.0511  155.8483 C.ar    1  UNL1        0.0200
     11 C         138.5231  148.5927  156.1905 C.ar    1  UNL1        0.0212
     12 C         139.2045  147.5802  155.3185 C.ar    1  UNL1        0.0943
     13 C         139.9640  148.0260  154.1043 C.ar    1  UNL1        0.1575
     14 F         140.6454  147.0135  153.2322 F       1  UNL1       -0.2026
     15 C         140.0422  149.4844  153.7621 C.ar    1  UNL1        0.0495
     16 C         139.5171  153.4136  153.9498 C.3     1  UNL1        0.1816
     17 S         139.4390  151.9553  154.2920 S.O2    1  UNL1        0.0105
     18 O         139.5301  151.6086  152.8354 O.2     1  UNL1       -0.1686
     19 O         139.3478  152.3019  155.7485 O.2     1  UNL1       -0.1686
     20 O         138.8918  141.7467  156.6871 O.3     1  UNL1       -0.4780
     21 C         138.8099  141.3163  158.1217 C.3     1  UNL1        0.1694
     22 C         139.0357  139.8792  158.4876 C.3     1  UNL1        0.0651
     23 C         138.9538  139.4488  159.9222 C.3     1  UNL1        0.0973
     24 N         138.6462  140.4554  160.9908 N.pl3   1  UNL1       -0.2780
     25 C         138.4204  141.8924  160.6249 C.3     1  UNL1        0.0973
     26 C         138.5023  142.3229  159.1904 C.3     1  UNL1        0.0651
     27 C         138.5643  140.0250  162.4255 C.ar    1  UNL1        0.2202
     28 N         138.8661  138.6043  162.8006 N.ar    1  UNL1       -0.2112
     29 C         138.7843  138.1739  164.2352 C.ar    1  UNL1        0.1147
     30 C         138.4006  139.1640  165.2946 C.ar    1  UNL1        0.0960
     31 CL        138.3187  138.7336  166.7292 Cl      1  UNL1       -0.0790
     32 C         138.0988  140.5847  164.9194 C.ar    1  UNL1        0.1147
     33 N         138.1807  141.0151  163.4848 N.ar    1  UNL1       -0.2112
@<TRIPOS>BOND
     1    16    17    1
     2    17    18    2
     3    17    19    2
     4    17     9    1
     5     9    10   ar
     6    10    11   ar
     7    11    12   ar
     8    12     1    1
     9     1     2   ar
    10     2     3   ar
    11     3     4    1
    12     3     5   ar
    13     5    20    1
    14    20    21    1
    15    21    22    1
    16    22    23    1
    17    23    24    1
    18    24    27    1
    19    27    28   ar
    20    28    29   ar
    21    29    30   ar
    22    30    31    1
    23    30    32   ar
    24    32    33   ar
    25    24    25    1
    26    25    26    1
    27     5     6   ar
    28     6     7   ar
    29     7     8    2
    30    12    13   ar
    31    13    14    1
    32    13    15   ar
    33    15     9   ar
    34     7     1   ar
    35    26    21    1
    36    33    27   ar
@<TRIPOS>MOLECULE
*****
 33 36 0 0 0
SMALL
GASTEIGER

@<TRIPOS>ATOM
      1 N         139.8332  139.3094  164.3436 N.ar    1  UNL1       -0.2699
      2 C         139.1045  140.2839  163.4666 C.ar    1  UNL1        0.0974
      3 C         138.8454  139.9493  162.0275 C.ar    1  UNL1        0.1092
      4 CL        138.1165  140.9239  161.1504 Cl      1  UNL1       -0.0775
      5 C         139.3150  138.6404  161.4655 C.ar    1  UNL1        0.1551
      6 C         140.0438  137.6659  162.3425 C.ar    1  UNL1        0.0988
      7 C         140.3029  138.0005  163.7816 C.ar    1  UNL1        0.2680
      8 O         141.0318  137.0259  164.6587 O.2     1  UNL1       -0.2665
      9 C         140.6105  140.3130  168.6609 C.ar    1  UNL1        0.1081
     10 C         141.7200  140.4120  167.6564 C.ar    1  UNL1        0.0200
     11 C         141.4609  140.0775  166.2173 C.ar    1  UNL1        0.0212
     12 C         140.0923  139.6440  165.7827 C.ar    1  UNL1        0.0943
     13 C         138.9828  139.5450  166.7872 C.ar    1  UNL1        0.1575
     14 F         137.6141  139.1114  166.3527 F       1  UNL1       -0.2026
     15 C         139.2419  139.8795  168.2263 C.ar    1  UNL1        0.0495
     16 C         141.1287  140.9821  171.5390 C.3     1  UNL1        0.1816
     17 S         140.8696  140.6476  170.1000 S.O2    1  UNL1        0.0105
     18 O         139.8760  139.6057  170.5210 O.2     1  UNL1       -0.1686
     19 O         141.8632  141.6895  169.6789 O.2     1  UNL1       -0.1686
     20 O         139.0560  138.3058  160.0264 O.3     1  UNL1       -0.4780
     21 C         140.0876  138.6238  158.9850 C.3     1  UNL1        0.1694
     22 C         141.2583  139.4956  159.3306 C.3     1  UNL1        0.0651
     23 C         142.2900  139.8136  158.2891 C.3     1  UNL1        0.0973
     24 N         142.1509  139.2597  156.9021 N.pl3   1  UNL1       -0.2780
     25 C         140.9802  138.3879  156.5565 C.3     1  UNL1        0.0973
     26 C         139.9486  138.0700  157.5979 C.3     1  UNL1        0.0651
     27 C         143.1826  139.5777  155.8606 C.ar    1  UNL1        0.2202
     28 N         142.7615  139.8541  154.4477 N.ar    1  UNL1       -0.2112
     29 C         143.7931  140.1720  153.4062 C.ar    1  UNL1        0.1147
     30 C         145.2457  140.2136  153.7777 C.ar    1  UNL1        0.0960
     31 CL        146.2774  140.5315  152.7362 Cl      1  UNL1       -0.0790
     32 C         145.6668  139.9372  155.1906 C.ar    1  UNL1        0.1147
     33 N         144.6352  139.6192  156.2320 N.ar    1  UNL1       -0.2112
@<TRIPOS>BOND
     1    16    17    1
     2    17    18    2
     3    17    19    2
     4    17     9    1
     5     9    10   ar
     6    10    11   ar
     7    11    12   ar
     8    12     1    1
     9     1     2   ar
    10     2     3   ar
    11     3     4    1
    12     3     5   ar
    13     5    20    1
    14    20    21    1
    15    21    22    1
    16    22    23    1
    17    23    24    1
    18    24    27    1
    19    27    28   ar
    20    28    29   ar
    21    29    30   ar
    22    30    31    1
    23    30    32   ar
    24    32    33   ar
    25    24    25    1
    26    25    26    1
    27     5     6   ar
    28     6     7   ar
    29     7     8    2
    30    12    13   ar
    31    13    14    1
    32    13    15   ar
    33    15     9   ar
    34     7     1   ar
    35    26    21    1
    36    33    27   ar
