@<TRIPOS>MOLECULE
*****
 27 30 0 0 0
SMALL
GASTEIGER

@<TRIPOS>ATOM
      1 C         141.1061  142.3062  165.2875 C.ar    1  UNL1        0.0177
      2 C         142.4573  142.9446  165.4167 C.ar    1  UNL1        0.0046
      3 C         143.0560  143.6754  164.2517 C.ar    1  UNL1        0.0374
      4 C         142.3034  143.7679  162.9574 C.ar    1  UNL1        0.1478
      5 N         142.6365  144.4173  161.6469 N.ar    1  UNL1       -0.2264
      6 C         141.4912  144.1803  160.7078 C.ar    1  UNL1        0.1004
      7 C         140.4502  143.3844  161.4379 C.ar    1  UNL1        0.1006
      8 N         140.9522  143.1296  162.8282 N.ar    1  UNL1       -0.2875
      9 C         140.3536  142.3987  163.9933 C.ar    1  UNL1        0.0814
     10 C         141.4023  144.6557  159.2878 C.ar    1  UNL1        0.0192
     11 C         142.4077  144.1900  158.2767 C.ar    1  UNL1        0.0024
     12 C         142.3189  144.6653  156.8568 C.ar    1  UNL1        0.0114
     13 C         141.2247  145.6063  156.4481 C.ar    1  UNL1        0.0577
     14 CL        141.1358  146.0817  155.0281 Cl      1  UNL1       -0.0822
     15 C         140.2193  146.0720  157.4591 C.ar    1  UNL1        0.0114
     16 C         140.3081  145.5967  158.8790 C.ar    1  UNL1        0.0024
     17 C         140.1436  141.3390  169.0142 C.ar    1  UNL1        0.0017
     18 C         139.3100  140.1136  168.7828 C.ar    1  UNL1       -0.0020
     19 C         139.0752  139.6190  167.3863 C.ar    1  UNL1       -0.0002
     20 C         139.6739  140.3499  166.2212 C.ar    1  UNL1        0.0000
     21 C         140.5074  141.5753  166.4526 C.ar    1  UNL1        0.0012
     22 C         140.7422  142.0699  167.8492 C.ar    1  UNL1       -0.0020
     23 C         140.2928  143.2497  169.9236 C.3     1  UNL1        0.0339
     24 C         140.3784  141.8336  170.4107 C.3     1  UNL1        0.1071
     25 C         140.4639  140.4175  170.8979 C.3     1  UNL1        0.0339
     26 O         140.6132  142.3282  171.8072 O.3     1  UNL1       -0.3827
     27 H         139.7821  142.6688  172.1737 H       1  UNL1        0.2107
@<TRIPOS>BOND
     1    23    24    1
     2    24    25    1
     3    24    26    1
     4    24    17    1
     5    17    18   ar
     6    18    19   ar
     7    19    20   ar
     8    20    21   ar
     9    21     1    1
    10     1     2   ar
    11     2     3   ar
    12     3     4   ar
    13     4     5   ar
    14     5     6   ar
    15     6    10    1
    16    10    11   ar
    17    11    12   ar
    18    12    13   ar
    19    13    14    1
    20    13    15   ar
    21    15    16   ar
    22     6     7   ar
    23     7     8   ar
    24     8     9   ar
    25    21    22   ar
    26    22    17   ar
    27     9     1   ar
    28     8     4   ar
    29    16    10   ar
    30    26    27    1
@<TRIPOS>MOLECULE
*****
 27 30 0 0 0
SMALL
GASTEIGER

@<TRIPOS>ATOM
      1 C         140.5772  142.8393  165.3960 C.ar    1  UNL1        0.0177
      2 C         139.5812  143.9433  165.5944 C.ar    1  UNL1        0.0046
      3 C         139.0598  144.7043  164.4117 C.ar    1  UNL1        0.0374
      4 C         139.5342  144.3614  163.0306 C.ar    1  UNL1        0.1478
      5 N         139.2005  144.9322  161.6841 N.ar    1  UNL1       -0.2264
      6 C         139.9903  144.1810  160.6536 C.ar    1  UNL1        0.1004
      7 C         140.8120  143.1459  161.3632 C.ar    1  UNL1        0.1006
      8 N         140.5301  143.2574  162.8322 N.ar    1  UNL1       -0.2875
      9 C         141.0516  142.4964  164.0149 C.ar    1  UNL1        0.0814
     10 C         139.9631  144.4224  159.1734 C.ar    1  UNL1        0.0192
     11 C         139.5154  143.3334  158.2440 C.ar    1  UNL1        0.0024
     12 C         139.4882  143.5748  156.7638 C.ar    1  UNL1        0.0114
     13 C         139.9088  144.9051  156.2130 C.ar    1  UNL1        0.0577
     14 CL        139.8816  145.1465  154.7328 Cl      1  UNL1       -0.0822
     15 C         140.3565  145.9940  157.1424 C.ar    1  UNL1        0.0114
     16 C         140.3837  145.7527  158.6226 C.ar    1  UNL1        0.0024
     17 C         141.1737  141.6841  169.1456 C.ar    1  UNL1        0.0017
     18 C         142.1417  140.5560  168.9442 C.ar    1  UNL1       -0.0020
     19 C         142.5882  140.1891  167.5600 C.ar    1  UNL1       -0.0002
     20 C         142.0666  140.9502  166.3772 C.ar    1  UNL1        0.0000
     21 C         141.0987  142.0782  166.5787 C.ar    1  UNL1        0.0012
     22 C         140.6522  142.4452  167.9629 C.ar    1  UNL1       -0.0020
     23 C         140.2937  143.3983  170.0328 C.3     1  UNL1        0.0339
     24 C         140.7273  142.0511  170.5298 C.3     1  UNL1        0.1071
     25 C         141.1608  140.7039  171.0268 C.3     1  UNL1        0.0339
     26 O         140.2808  142.4181  171.9140 O.3     1  UNL1       -0.3827
     27 H         139.3119  142.4002  171.9566 H       1  UNL1        0.2107
@<TRIPOS>BOND
     1    23    24    1
     2    24    25    1
     3    24    26    1
     4    24    17    1
     5    17    18   ar
     6    18    19   ar
     7    19    20   ar
     8    20    21   ar
     9    21     1    1
    10     1     2   ar
    11     2     3   ar
    12     3     4   ar
    13     4     5   ar
    14     5     6   ar
    15     6    10    1
    16    10    11   ar
    17    11    12   ar
    18    12    13   ar
    19    13    14    1
    20    13    15   ar
    21    15    16   ar
    22     6     7   ar
    23     7     8   ar
    24     8     9   ar
    25    21    22   ar
    26    22    17   ar
    27     9     1   ar
    28     8     4   ar
    29    16    10   ar
    30    26    27    1
@<TRIPOS>MOLECULE
*****
 27 30 0 0 0
SMALL
GASTEIGER

@<TRIPOS>ATOM
      1 C         139.6116  142.3516  164.8640 C.ar    1  UNL1        0.0177
      2 C         138.2120  142.7237  164.4734 C.ar    1  UNL1        0.0046
      3 C         137.9310  143.2421  163.0942 C.ar    1  UNL1        0.0374
      4 C         139.0496  143.3885  162.1057 C.ar    1  UNL1        0.1478
      5 N         139.0769  143.8686  160.6848 N.ar    1  UNL1       -0.2264
      6 C         140.4935  143.7932  160.1972 C.ar    1  UNL1        0.1004
      7 C         141.3416  143.2665  161.3168 C.ar    1  UNL1        0.1006
      8 N         140.4492  143.0164  162.4963 N.ar    1  UNL1       -0.2875
      9 C         140.7302  142.4980  163.8754 C.ar    1  UNL1        0.0814
     10 C         140.9771  144.1770  158.8302 C.ar    1  UNL1        0.0192
     11 C         140.3033  145.2881  158.0808 C.ar    1  UNL1        0.0024
     12 C         140.7868  145.6719  156.7138 C.ar    1  UNL1        0.0114
     13 C         141.9442  144.9447  156.0961 C.ar    1  UNL1        0.0577
     14 CL        142.4278  145.3286  154.7290 Cl      1  UNL1       -0.0822
     15 C         142.6181  143.8337  156.8455 C.ar    1  UNL1        0.0114
     16 C         142.1345  143.4498  158.2125 C.ar    1  UNL1        0.0024
     17 C         140.9591  142.1481  168.5913 C.ar    1  UNL1        0.0017
     18 C         140.4548  140.7962  169.0017 C.ar    1  UNL1       -0.0020
     19 C         139.6695  139.9629  168.0328 C.ar    1  UNL1       -0.0002
     20 C         139.3884  140.4814  166.6536 C.ar    1  UNL1        0.0000
     21 C         139.8927  141.8331  166.2433 C.ar    1  UNL1        0.0012
     22 C         140.6780  142.6665  167.2122 C.ar    1  UNL1       -0.0020
     23 C         140.5108  143.7726  169.8798 C.3     1  UNL1        0.0339
     24 C         141.7445  142.9814  169.5602 C.3     1  UNL1        0.1071
     25 C         142.9781  142.1903  169.2407 C.3     1  UNL1        0.0339
     26 O         142.5298  143.8148  170.5291 O.3     1  UNL1       -0.3827
     27 H         142.2980  143.5607  171.4361 H       1  UNL1        0.2107
@<TRIPOS>BOND
     1    23    24    1
     2    24    25    1
     3    24    26    1
     4    24    17    1
     5    17    18   ar
     6    18    19   ar
     7    19    20   ar
     8    20    21   ar
     9    21     1    1
    10     1     2   ar
    11     2     3   ar
    12     3     4   ar
    13     4     5   ar
    14     5     6   ar
    15     6    10    1
    16    10    11   ar
    17    11    12   ar
    18    12    13   ar
    19    13    14    1
    20    13    15   ar
    21    15    16   ar
    22     6     7   ar
    23     7     8   ar
    24     8     9   ar
    25    21    22   ar
    26    22    17   ar
    27     9     1   ar
    28     8     4   ar
    29    16    10   ar
    30    26    27    1
@<TRIPOS>MOLECULE
*****
 27 30 0 0 0
SMALL
GASTEIGER

@<TRIPOS>ATOM
      1 C         140.0419  142.8860  164.9004 C.ar    1  UNL1        0.0177
      2 C         138.7746  143.6882  164.8823 C.ar    1  UNL1        0.0046
      3 C         138.0123  143.8575  163.6016 C.ar    1  UNL1        0.0374
      4 C         138.5174  143.2245  162.3390 C.ar    1  UNL1        0.1478
      5 N         137.9844  143.2179  160.9368 N.ar    1  UNL1       -0.2264
      6 C         138.9224  142.4115  160.0883 C.ar    1  UNL1        0.1004
      7 C         140.0350  141.9198  160.9661 C.ar    1  UNL1        0.1006
      8 N         139.7846  142.4223  162.3570 N.ar    1  UNL1       -0.2875
      9 C         140.5469  142.2530  163.6377 C.ar    1  UNL1        0.0814
     10 C         138.7739  142.1437  158.6198 C.ar    1  UNL1        0.0192
     11 C         138.1570  140.8596  158.1502 C.ar    1  UNL1        0.0024
     12 C         138.0085  140.5918  156.6819 C.ar    1  UNL1        0.0114
     13 C         138.4768  141.6082  155.6831 C.ar    1  UNL1        0.0577
     14 CL        138.3283  141.3405  154.2146 Cl      1  UNL1       -0.0822
     15 C         139.0936  142.8923  156.1527 C.ar    1  UNL1        0.0114
     16 C         139.2422  143.1601  157.6210 C.ar    1  UNL1        0.0024
     17 C         140.8640  142.6995  168.7785 C.ar    1  UNL1        0.0017
     18 C         142.3288  142.3781  168.7426 C.ar    1  UNL1       -0.0020
     19 C         143.0312  142.2260  167.4260 C.ar    1  UNL1       -0.0002
     20 C         142.2689  142.3953  166.1453 C.ar    1  UNL1        0.0000
     21 C         140.8042  142.7167  166.1811 C.ar    1  UNL1        0.0012
     22 C         140.1018  142.8687  167.4977 C.ar    1  UNL1       -0.0020
     23 C         139.8221  141.3905  170.0827 C.3     1  UNL1        0.0339
     24 C         140.1616  142.8515  170.0951 C.3     1  UNL1        0.1071
     25 C         140.5010  144.3126  170.1074 C.3     1  UNL1        0.0339
     26 O         139.4591  143.0036  171.4117 O.3     1  UNL1       -0.3827
     27 H         140.0025  142.6148  172.1149 H       1  UNL1        0.2107
@<TRIPOS>BOND
     1    23    24    1
     2    24    25    1
     3    24    26    1
     4    24    17    1
     5    17    18   ar
     6    18    19   ar
     7    19    20   ar
     8    20    21   ar
     9    21     1    1
    10     1     2   ar
    11     2     3   ar
    12     3     4   ar
    13     4     5   ar
    14     5     6   ar
    15     6    10    1
    16    10    11   ar
    17    11    12   ar
    18    12    13   ar
    19    13    14    1
    20    13    15   ar
    21    15    16   ar
    22     6     7   ar
    23     7     8   ar
    24     8     9   ar
    25    21    22   ar
    26    22    17   ar
    27     9     1   ar
    28     8     4   ar
    29    16    10   ar
    30    26    27    1
@<TRIPOS>MOLECULE
*****
 27 30 0 0 0
SMALL
GASTEIGER

@<TRIPOS>ATOM
      1 C         139.6309  139.9896  164.9908 C.ar    1  UNL1        0.0177
      2 C         139.2127  138.5494  165.0207 C.ar    1  UNL1        0.0046
      3 C         138.9710  137.8119  163.7372 C.ar    1  UNL1        0.0374
      4 C         139.1477  138.5145  162.4237 C.ar    1  UNL1        0.1478
      5 N         138.9827  138.0502  161.0069 N.ar    1  UNL1       -0.2264
      6 C         139.2990  139.2034  160.1014 C.ar    1  UNL1        0.1004
      7 C         139.6595  140.3804  160.9586 C.ar    1  UNL1        0.1006
      8 N         139.5659  139.9546  162.3938 N.ar    1  UNL1       -0.2875
      9 C         139.8075  140.6922  163.6774 C.ar    1  UNL1        0.0814
     10 C         139.2615  139.1832  158.6020 C.ar    1  UNL1        0.0192
     11 C         139.8884  138.0459  157.8513 C.ar    1  UNL1        0.0024
     12 C         139.8509  138.0257  156.3519 C.ar    1  UNL1        0.0114
     13 C         139.1866  139.1428  155.6032 C.ar    1  UNL1        0.0577
     14 CL        139.1491  139.1226  154.1038 Cl      1  UNL1       -0.0822
     15 C         138.5597  140.2802  156.3539 C.ar    1  UNL1        0.0114
     16 C         138.5972  140.3004  157.8533 C.ar    1  UNL1        0.0024
     17 C         140.0020  140.7450  168.8692 C.ar    1  UNL1        0.0017
     18 C         140.3558  142.2025  168.8416 C.ar    1  UNL1       -0.0020
     19 C         140.4679  142.9223  167.5304 C.ar    1  UNL1       -0.0002
     20 C         140.2263  142.1846  166.2468 C.ar    1  UNL1        0.0000
     21 C         139.8725  140.7273  166.2744 C.ar    1  UNL1        0.0012
     22 C         139.7604  140.0074  167.5857 C.ar    1  UNL1       -0.0020
     23 C         138.4068  140.2497  170.1768 C.3     1  UNL1        0.0339
     24 C         139.8899  140.0251  170.1804 C.3     1  UNL1        0.1071
     25 C         141.3730  139.8006  170.1840 C.3     1  UNL1        0.0339
     26 O         139.7777  139.3053  171.4916 O.3     1  UNL1       -0.3827
     27 H         139.3924  138.4271  171.3464 H       1  UNL1        0.2107
@<TRIPOS>BOND
     1    23    24    1
     2    24    25    1
     3    24    26    1
     4    24    17    1
     5    17    18   ar
     6    18    19   ar
     7    19    20   ar
     8    20    21   ar
     9    21     1    1
    10     1     2   ar
    11     2     3   ar
    12     3     4   ar
    13     4     5   ar
    14     5     6   ar
    15     6    10    1
    16    10    11   ar
    17    11    12   ar
    18    12    13   ar
    19    13    14    1
    20    13    15   ar
    21    15    16   ar
    22     6     7   ar
    23     7     8   ar
    24     8     9   ar
    25    21    22   ar
    26    22    17   ar
    27     9     1   ar
    28     8     4   ar
    29    16    10   ar
    30    26    27    1
@<TRIPOS>MOLECULE
*****
 27 30 0 0 0
SMALL
GASTEIGER

@<TRIPOS>ATOM
      1 C         139.9278  139.8886  164.9766 C.ar    1  UNL1        0.0177
      2 C         139.0390  138.6815  164.9221 C.ar    1  UNL1        0.0046
      3 C         138.9052  137.9058  163.6453 C.ar    1  UNL1        0.0374
      4 C         139.6601  138.3371  162.4230 C.ar    1  UNL1        0.1478
      5 N         139.7265  137.7749  161.0339 N.ar    1  UNL1       -0.2264
      6 C         140.6563  138.6346  160.2299 C.ar    1  UNL1        0.1004
      7 C         141.1646  139.7280  161.1221 C.ar    1  UNL1        0.1006
      8 N         140.5489  139.5442  162.4775 N.ar    1  UNL1       -0.2875
      9 C         140.6828  140.3199  163.7543 C.ar    1  UNL1        0.0814
     10 C         141.0149  138.4357  158.7870 C.ar    1  UNL1        0.0192
     11 C         139.9329  138.3088  157.7559 C.ar    1  UNL1        0.0024
     12 C         140.2915  138.1100  156.3131 C.ar    1  UNL1        0.0114
     13 C         141.7320  138.0380  155.9013 C.ar    1  UNL1        0.0577
     14 CL        142.0907  137.8392  154.4584 Cl      1  UNL1       -0.0822
     15 C         142.8140  138.1649  156.9324 C.ar    1  UNL1        0.0114
     16 C         142.4555  138.3638  158.3753 C.ar    1  UNL1        0.0024
     17 C         140.0659  140.7399  168.8504 C.ar    1  UNL1        0.0017
     18 C         140.3294  142.2159  168.8072 C.ar    1  UNL1       -0.0020
     19 C         140.4591  142.9162  167.4870 C.ar    1  UNL1       -0.0002
     20 C         140.3252  142.1404  166.2101 C.ar    1  UNL1        0.0000
     21 C         140.0617  140.6644  166.2535 C.ar    1  UNL1        0.0012
     22 C         139.9320  139.9641  167.5736 C.ar    1  UNL1       -0.0020
     23 C         138.4537  140.2667  170.1454 C.3     1  UNL1        0.0339
     24 C         139.9362  140.0396  170.1706 C.3     1  UNL1        0.1071
     25 C         141.4187  139.8125  170.1958 C.3     1  UNL1        0.0339
     26 O         139.8065  139.3393  171.4908 O.3     1  UNL1       -0.3827
     27 H         139.4212  138.4597  171.3537 H       1  UNL1        0.2107
@<TRIPOS>BOND
     1    23    24    1
     2    24    25    1
     3    24    26    1
     4    24    17    1
     5    17    18   ar
     6    18    19   ar
     7    19    20   ar
     8    20    21   ar
     9    21     1    1
    10     1     2   ar
    11     2     3   ar
    12     3     4   ar
    13     4     5   ar
    14     5     6   ar
    15     6    10    1
    16    10    11   ar
    17    11    12   ar
    18    12    13   ar
    19    13    14    1
    20    13    15   ar
    21    15    16   ar
    22     6     7   ar
    23     7     8   ar
    24     8     9   ar
    25    21    22   ar
    26    22    17   ar
    27     9     1   ar
    28     8     4   ar
    29    16    10   ar
    30    26    27    1
@<TRIPOS>MOLECULE
*****
 27 30 0 0 0
SMALL
GASTEIGER

@<TRIPOS>ATOM
      1 C         141.3597  142.1730  165.1885 C.ar    1  UNL1        0.0177
      2 C         141.0501  140.8126  164.6377 C.ar    1  UNL1        0.0046
      3 C         140.6713  140.6561  163.1948 C.ar    1  UNL1        0.0374
      4 C         140.6022  141.8601  162.3027 C.ar    1  UNL1        0.1478
      5 N         140.2605  142.0148  160.8503 N.ar    1  UNL1       -0.2264
      6 C         140.3590  143.4708  160.5036 C.ar    1  UNL1        0.1004
      7 C         140.7614  144.2159  161.7417 C.ar    1  UNL1        0.1006
      8 N         140.9117  143.2204  162.8536 N.ar    1  UNL1       -0.2875
      9 C         141.2905  143.3769  164.2965 C.ar    1  UNL1        0.0814
     10 C         140.1003  144.0756  159.1554 C.ar    1  UNL1        0.0192
     11 C         140.5567  145.4737  158.8606 C.ar    1  UNL1        0.0024
     12 C         140.2981  146.0785  157.5126 C.ar    1  UNL1        0.0114
     13 C         139.5832  145.2852  156.4593 C.ar    1  UNL1        0.0577
     14 CL        139.3245  145.8900  155.1112 Cl      1  UNL1       -0.0822
     15 C         139.1268  143.8871  156.7541 C.ar    1  UNL1        0.0114
     16 C         139.3854  143.2823  158.1022 C.ar    1  UNL1        0.0024
     17 C         141.0567  142.7370  169.1052 C.ar    1  UNL1        0.0017
     18 C         142.4959  142.6425  169.5174 C.ar    1  UNL1       -0.0020
     19 C         143.5564  142.3915  168.4866 C.ar    1  UNL1       -0.0002
     20 C         143.1776  142.2350  167.0437 C.ar    1  UNL1        0.0000
     21 C         141.7384  142.3295  166.6315 C.ar    1  UNL1        0.0012
     22 C         140.6780  142.5805  167.6623 C.ar    1  UNL1       -0.0020
     23 C         139.6328  141.5329  170.1164 C.3     1  UNL1        0.0339
     24 C         139.9963  142.9880  170.1360 C.3     1  UNL1        0.1071
     25 C         140.3598  144.4432  170.1556 C.3     1  UNL1        0.0339
     26 O         138.9359  143.2391  171.1667 O.3     1  UNL1       -0.3827
     27 H         139.2313  142.8961  172.0247 H       1  UNL1        0.2107
@<TRIPOS>BOND
     1    23    24    1
     2    24    25    1
     3    24    26    1
     4    24    17    1
     5    17    18   ar
     6    18    19   ar
     7    19    20   ar
     8    20    21   ar
     9    21     1    1
    10     1     2   ar
    11     2     3   ar
    12     3     4   ar
    13     4     5   ar
    14     5     6   ar
    15     6    10    1
    16    10    11   ar
    17    11    12   ar
    18    12    13   ar
    19    13    14    1
    20    13    15   ar
    21    15    16   ar
    22     6     7   ar
    23     7     8   ar
    24     8     9   ar
    25    21    22   ar
    26    22    17   ar
    27     9     1   ar
    28     8     4   ar
    29    16    10   ar
    30    26    27    1
@<TRIPOS>MOLECULE
*****
 27 30 0 0 0
SMALL
GASTEIGER

@<TRIPOS>ATOM
      1 C         141.0985  140.0742  165.2960 C.ar    1  UNL1        0.0177
      2 C         140.1245  138.9452  165.4585 C.ar    1  UNL1        0.0046
      3 C         139.7248  138.1226  164.2696 C.ar    1  UNL1        0.0374
      4 C         140.2990  138.4290  162.9182 C.ar    1  UNL1        0.1478
      5 N         140.0938  137.7966  161.5736 N.ar    1  UNL1       -0.2264
      6 C         140.9411  138.5348  160.5800 C.ar    1  UNL1        0.1004
      7 C         141.6699  139.6235  161.3106 C.ar    1  UNL1        0.1006
      8 N         141.2731  139.5580  162.7557 N.ar    1  UNL1       -0.2875
      9 C         141.6728  140.3806  163.9446 C.ar    1  UNL1        0.0814
     10 C         141.0419  138.2368  159.1133 C.ar    1  UNL1        0.0192
     11 C         142.3821  137.9802  158.4905 C.ar    1  UNL1        0.0024
     12 C         142.4829  137.6821  157.0239 C.ar    1  UNL1        0.0114
     13 C         141.2435  137.6408  156.1801 C.ar    1  UNL1        0.0577
     14 CL        141.3443  137.3427  154.7134 Cl      1  UNL1       -0.0822
     15 C         139.9033  137.8974  156.8029 C.ar    1  UNL1        0.0114
     16 C         139.8024  138.1954  158.2695 C.ar    1  UNL1        0.0024
     17 C         140.9066  141.9897  168.7665 C.ar    1  UNL1        0.0017
     18 C         142.2979  142.5422  168.8626 C.ar    1  UNL1       -0.0020
     19 C         143.2893  142.2721  167.7699 C.ar    1  UNL1       -0.0002
     20 C         142.8895  141.4494  166.5810 C.ar    1  UNL1        0.0000
     21 C         141.4983  140.8969  166.4849 C.ar    1  UNL1        0.0012
     22 C         140.5069  141.1670  167.5776 C.ar    1  UNL1       -0.0020
     23 C         139.3938  140.8591  169.7324 C.3     1  UNL1        0.0339
     24 C         139.9152  142.2598  169.8592 C.3     1  UNL1        0.1071
     25 C         140.4366  143.6605  169.9860 C.3     1  UNL1        0.0339
     26 O         138.9237  142.5299  170.9519 O.3     1  UNL1       -0.3827
     27 H         139.2082  142.0828  171.7644 H       1  UNL1        0.2107
@<TRIPOS>BOND
     1    23    24    1
     2    24    25    1
     3    24    26    1
     4    24    17    1
     5    17    18   ar
     6    18    19   ar
     7    19    20   ar
     8    20    21   ar
     9    21     1    1
    10     1     2   ar
    11     2     3   ar
    12     3     4   ar
    13     4     5   ar
    14     5     6   ar
    15     6    10    1
    16    10    11   ar
    17    11    12   ar
    18    12    13   ar
    19    13    14    1
    20    13    15   ar
    21    15    16   ar
    22     6     7   ar
    23     7     8   ar
    24     8     9   ar
    25    21    22   ar
    26    22    17   ar
    27     9     1   ar
    28     8     4   ar
    29    16    10   ar
    30    26    27    1
@<TRIPOS>MOLECULE
*****
 27 30 0 0 0
SMALL
GASTEIGER

@<TRIPOS>ATOM
      1 C         140.2793  139.0813  165.2943 C.ar    1  UNL1        0.0177
      2 C         139.3126  138.0455  164.8019 C.ar    1  UNL1        0.0046
      3 C         139.3534  137.6023  163.3695 C.ar    1  UNL1        0.0374
      4 C         140.3609  138.1951  162.4294 C.ar    1  UNL1        0.1478
      5 N         140.6377  137.9571  160.9745 N.ar    1  UNL1       -0.2264
      6 C         141.7755  138.8459  160.5677 C.ar    1  UNL1        0.1004
      7 C         142.2018  139.6332  161.7713 C.ar    1  UNL1        0.1006
      8 N         141.3276  139.2310  162.9218 N.ar    1  UNL1       -0.2875
      9 C         141.2868  139.6741  164.3543 C.ar    1  UNL1        0.0814
     10 C         142.3808  138.9323  159.1979 C.ar    1  UNL1        0.0192
     11 C         142.3496  137.7404  158.2877 C.ar    1  UNL1        0.0024
     12 C         142.9548  137.8268  156.9180 C.ar    1  UNL1        0.0114
     13 C         143.5912  139.1050  156.4584 C.ar    1  UNL1        0.0577
     14 CL        144.1964  139.1913  155.0886 Cl      1  UNL1       -0.0822
     15 C         143.6224  140.2968  157.3687 C.ar    1  UNL1        0.0114
     16 C         143.0172  140.2105  158.7384 C.ar    1  UNL1        0.0024
     17 C         141.4623  140.3793  168.8532 C.ar    1  UNL1        0.0017
     18 C         140.1571  140.4109  169.5918 C.ar    1  UNL1       -0.0020
     19 C         138.8925  139.9993  168.8978 C.ar    1  UNL1       -0.0002
     20 C         138.9333  139.5561  167.4653 C.ar    1  UNL1        0.0000
     21 C         140.2385  139.5245  166.7268 C.ar    1  UNL1        0.0012
     22 C         141.5030  139.9361  167.4208 C.ar    1  UNL1       -0.0020
     23 C         142.7485  139.4839  170.2829 C.3     1  UNL1        0.0339
     24 C         142.7268  140.7909  169.5472 C.3     1  UNL1        0.1071
     25 C         142.7051  142.0979  168.8115 C.3     1  UNL1        0.0339
     26 O         143.9913  141.2025  170.2412 O.3     1  UNL1       -0.3827
     27 H         144.7406  140.7157  169.8636 H       1  UNL1        0.2107
@<TRIPOS>BOND
     1    23    24    1
     2    24    25    1
     3    24    26    1
     4    24    17    1
     5    17    18   ar
     6    18    19   ar
     7    19    20   ar
     8    20    21   ar
     9    21     1    1
    10     1     2   ar
    11     2     3   ar
    12     3     4   ar
    13     4     5   ar
    14     5     6   ar
    15     6    10    1
    16    10    11   ar
    17    11    12   ar
    18    12    13   ar
    19    13    14    1
    20    13    15   ar
    21    15    16   ar
    22     6     7   ar
    23     7     8   ar
    24     8     9   ar
    25    21    22   ar
    26    22    17   ar
    27     9     1   ar
    28     8     4   ar
    29    16    10   ar
    30    26    27    1
