@<TRIPOS>MOLECULE
*****
 33 37 0 0 0
SMALL
GASTEIGER

@<TRIPOS>ATOM
      1 C         140.2055  140.7363  161.6667 C.3     1  UNL1        0.0339
      2 C         140.5333  141.6069  162.8434 C.ar    1  UNL1        0.0095
      3 C         141.2547  142.9058  162.6374 C.ar    1  UNL1        0.0730
      4 C         141.5825  143.7764  163.8141 C.ar    1  UNL1        0.1531
      5 F         142.3039  145.0754  163.6081 F       1  UNL1       -0.2029
      6 C         141.1889  143.3482  165.1967 C.ar    1  UNL1        0.0320
      7 C         140.4675  142.0493  165.4026 C.ar    1  UNL1        0.0145
      8 C         140.0738  141.6210  166.7853 C.ar    1  UNL1       -0.0069
      9 C         139.3524  140.3221  166.9912 C.ar    1  UNL1        0.0570
     10 C         139.0246  139.4515  165.8146 C.ar    1  UNL1        0.2606
     11 O         138.3032  138.1525  166.0206 O.2     1  UNL1       -0.2670
     12 N         139.4183  139.8797  164.4320 N.ar    1  UNL1       -0.2977
     13 C         140.1397  141.1787  164.2260 C.ar    1  UNL1        0.0594
     14 N         141.6483  143.3341  161.2548 N.pl3   1  UNL1       -0.3059
     15 C         142.8367  142.8408  160.4838 C.3     1  UNL1        0.0909
     16 C         142.8456  143.5326  159.1529 C.3     1  UNL1        0.0244
     17 C         141.6626  144.4536  159.1014 C.3     1  UNL1        0.0344
     18 C         140.9227  144.3308  160.4004 C.3     1  UNL1        0.0921
     19 C         141.2858  145.3413  157.9525 C.3     1  UNL1        0.0406
     20 N         142.5124  146.2011  157.8745 N.3     1  UNL1       -0.3231
     21 C         140.4830  145.9305  156.8308 C.3     1  UNL1        0.0156
     22 C         139.9283  144.7898  157.6316 C.3     1  UNL1        0.0156
     23 H         143.1744  145.9152  158.5959 H       1  UNL1        0.1188
     24 H         142.2533  147.1771  158.0183 H       1  UNL1        0.1188
     25 C         139.0905  139.0091  163.2553 C.3     1  UNL1        0.0885
     26 C         138.1387  138.5906  162.1742 C.3     1  UNL1        0.0246
     27 C         139.4745  137.9196  162.2985 C.3     1  UNL1        0.0246
     28 C         140.4016  142.4917  167.9620 C.3     1  UNL1        0.1118
     29 C         140.5084  141.8914  169.3324 C.2     1  UNL1        0.2302
     30 O         139.2857  141.7612  170.1916 O.2     1  UNL1       -0.2745
     31 N         141.8378  141.4213  169.8439 N.am    1  UNL1       -0.2758
     32 C         141.9446  140.8211  171.2144 C.3     1  UNL1        0.1149
     33 C         143.0605  141.5515  168.9848 C.3     1  UNL1        0.1149
@<TRIPOS>BOND
     1     1     2    1
     2     2     3   ar
     3     3    14    1
     4    14    15    1
     5    15    16    1
     6    16    17    1
     7    17    19    1
     8    19    20    1
     9    19    21    1
    10    21    22    1
    11    17    18    1
    12     3     4   ar
    13     4     5    1
    14     4     6   ar
    15     6     7   ar
    16     7     8   ar
    17     8    28    1
    18    28    29    1
    19    29    30    2
    20    29    31   am
    21    31    32    1
    22    31    33    1
    23     8     9   ar
    24     9    10   ar
    25    10    11    2
    26    10    12   ar
    27    12    25    1
    28    25    26    1
    29    26    27    1
    30    12    13   ar
    31    13     2   ar
    32    18    14    1
    33    13     7   ar
    34    22    19    1
    35    27    25    1
    36    20    23    1
    37    20    24    1
@<TRIPOS>MOLECULE
*****
 33 37 0 0 0
SMALL
GASTEIGER

@<TRIPOS>ATOM
      1 C         138.6892  142.2776  164.8099 C.3     1  UNL1        0.0339
      2 C         138.9496  140.9792  164.1053 C.ar    1  UNL1        0.0095
      3 C         139.1176  139.7166  164.8975 C.ar    1  UNL1        0.0730
      4 C         139.3780  138.4182  164.1929 C.ar    1  UNL1        0.1531
      5 F         139.5460  137.1555  164.9852 F       1  UNL1       -0.2029
      6 C         139.4703  138.3824  162.6962 C.ar    1  UNL1        0.0320
      7 C         139.3023  139.6450  161.9041 C.ar    1  UNL1        0.0145
      8 C         139.3947  139.6093  160.4073 C.ar    1  UNL1       -0.0069
      9 C         139.2267  140.8719  159.6152 C.ar    1  UNL1        0.0570
     10 C         138.9663  142.1703  160.3197 C.ar    1  UNL1        0.2606
     11 O         138.7983  143.4329  159.5275 O.2     1  UNL1       -0.2670
     12 N         138.8739  142.2061  161.8164 N.ar    1  UNL1       -0.2977
     13 C         139.0419  140.9434  162.6086 C.ar    1  UNL1        0.0594
     14 N         139.0252  139.7523  166.3943 N.pl3   1  UNL1       -0.3059
     15 C         137.9763  139.0794  167.2292 C.3     1  UNL1        0.0909
     16 C         138.2683  139.3784  168.6698 C.3     1  UNL1        0.0244
     17 C         139.4977  140.2361  168.7252 C.3     1  UNL1        0.0344
     18 C         139.9655  140.4672  167.3188 C.3     1  UNL1        0.0921
     19 C         140.1456  140.7692  169.9686 C.3     1  UNL1        0.0406
     20 N         140.3002  139.4968  170.7477 N.3     1  UNL1       -0.3231
     21 C         140.7397  141.7441  170.9414 C.3     1  UNL1        0.0156
     22 C         140.2160  142.2267  169.6213 C.3     1  UNL1        0.0156
     23 H         139.9309  138.7175  170.2029 H       1  UNL1        0.1188
     24 H         139.7866  139.5712  171.6258 H       1  UNL1        0.1188
     25 C         138.6136  143.5045  162.5209 C.3     1  UNL1        0.0885
     26 C         137.6687  144.4364  163.2199 C.3     1  UNL1        0.0246
     27 C         139.1075  144.8213  163.0423 C.3     1  UNL1        0.0246
     28 C         139.6551  138.3109  159.7028 C.3     1  UNL1        0.1118
     29 C         140.1594  138.3121  158.2901 C.2     1  UNL1        0.2302
     30 O         139.1895  138.3725  157.1475 O.2     1  UNL1       -0.2745
     31 N         141.6337  138.2530  158.0201 N.am    1  UNL1       -0.2758
     32 C         142.1381  138.2542  156.6074 C.3     1  UNL1        0.1149
     33 C         142.6037  138.1926  159.1627 C.3     1  UNL1        0.1149
@<TRIPOS>BOND
     1     1     2    1
     2     2     3   ar
     3     3    14    1
     4    14    15    1
     5    15    16    1
     6    16    17    1
     7    17    19    1
     8    19    20    1
     9    19    21    1
    10    21    22    1
    11    17    18    1
    12     3     4   ar
    13     4     5    1
    14     4     6   ar
    15     6     7   ar
    16     7     8   ar
    17     8    28    1
    18    28    29    1
    19    29    30    2
    20    29    31   am
    21    31    32    1
    22    31    33    1
    23     8     9   ar
    24     9    10   ar
    25    10    11    2
    26    10    12   ar
    27    12    25    1
    28    25    26    1
    29    26    27    1
    30    12    13   ar
    31    13     2   ar
    32    18    14    1
    33    13     7   ar
    34    22    19    1
    35    27    25    1
    36    20    23    1
    37    20    24    1
@<TRIPOS>MOLECULE
*****
 33 37 0 0 0
SMALL
GASTEIGER

@<TRIPOS>ATOM
      1 C         139.5526  141.1057  161.6669 C.3     1  UNL1        0.0339
      2 C         139.9511  141.8011  162.9349 C.ar    1  UNL1        0.0095
      3 C         140.5380  143.1805  162.8812 C.ar    1  UNL1        0.0730
      4 C         140.9365  143.8759  164.1491 C.ar    1  UNL1        0.1531
      5 F         141.5233  145.2553  164.0954 F       1  UNL1       -0.2029
      6 C         140.7482  143.1919  165.4707 C.ar    1  UNL1        0.0320
      7 C         140.1614  141.8125  165.5244 C.ar    1  UNL1        0.0145
      8 C         139.9731  141.1284  166.8460 C.ar    1  UNL1       -0.0069
      9 C         139.3862  139.7491  166.8997 C.ar    1  UNL1        0.0570
     10 C         138.9877  139.0537  165.6318 C.ar    1  UNL1        0.2606
     11 O         138.4009  137.6742  165.6855 O.2     1  UNL1       -0.2670
     12 N         139.1760  139.7377  164.3102 N.ar    1  UNL1       -0.2977
     13 C         139.7629  141.1171  164.2565 C.ar    1  UNL1        0.0594
     14 N         140.7263  143.8646  161.5596 N.pl3   1  UNL1       -0.3059
     15 C         140.0245  145.1092  161.1031 C.3     1  UNL1        0.0909
     16 C         140.5139  145.4380  159.7238 C.3     1  UNL1        0.0244
     17 C         141.5181  144.3965  159.3279 C.3     1  UNL1        0.0344
     18 C         141.6494  143.4241  160.4624 C.3     1  UNL1        0.0921
     19 C         142.2608  144.3378  158.0259 C.3     1  UNL1        0.0406
     20 N         142.5322  145.7978  157.8148 N.3     1  UNL1       -0.3231
     21 C         142.9091  143.7719  156.7973 C.3     1  UNL1        0.0156
     22 C         142.2472  142.8573  157.7849 C.3     1  UNL1        0.0156
     23 H         142.1409  146.3320  158.5906 H       1  UNL1        0.1188
     24 H         142.1010  146.1010  156.9416 H       1  UNL1        0.1188
     25 C         138.7775  139.0423  163.0422 C.3     1  UNL1        0.0885
     26 C         139.0801  138.0621  161.9480 C.3     1  UNL1        0.0246
     27 C         137.7846  138.8182  161.9405 C.3     1  UNL1        0.0246
     28 C         140.3716  141.8238  168.1139 C.3     1  UNL1        0.1118
     29 C         141.6657  141.4735  168.7865 C.2     1  UNL1        0.2302
     30 O         142.9583  142.0202  168.2569 O.2     1  UNL1       -0.2745
     31 N         141.6674  140.5766  169.9889 N.am    1  UNL1       -0.2758
     32 C         142.9616  140.2263  170.6615 C.3     1  UNL1        0.1149
     33 C         140.3749  140.0300  170.5185 C.3     1  UNL1        0.1149
@<TRIPOS>BOND
     1     1     2    1
     2     2     3   ar
     3     3    14    1
     4    14    15    1
     5    15    16    1
     6    16    17    1
     7    17    19    1
     8    19    20    1
     9    19    21    1
    10    21    22    1
    11    17    18    1
    12     3     4   ar
    13     4     5    1
    14     4     6   ar
    15     6     7   ar
    16     7     8   ar
    17     8    28    1
    18    28    29    1
    19    29    30    2
    20    29    31   am
    21    31    32    1
    22    31    33    1
    23     8     9   ar
    24     9    10   ar
    25    10    11    2
    26    10    12   ar
    27    12    25    1
    28    25    26    1
    29    26    27    1
    30    12    13   ar
    31    13     2   ar
    32    18    14    1
    33    13     7   ar
    34    22    19    1
    35    27    25    1
    36    20    23    1
    37    20    24    1
@<TRIPOS>MOLECULE
*****
 33 37 0 0 0
SMALL
GASTEIGER

@<TRIPOS>ATOM
      1 C         142.4076  142.5767  164.7309 C.3     1  UNL1        0.0339
      2 C         142.0534  141.4497  163.8066 C.ar    1  UNL1        0.0095
      3 C         141.8283  140.0720  164.3554 C.ar    1  UNL1        0.0730
      4 C         141.4742  138.9450  163.4311 C.ar    1  UNL1        0.1531
      5 F         141.2491  137.5673  163.9801 F       1  UNL1       -0.2029
      6 C         141.3451  139.1957  161.9579 C.ar    1  UNL1        0.0320
      7 C         141.5701  140.5733  161.4090 C.ar    1  UNL1        0.0145
      8 C         141.4410  140.8240  159.9357 C.ar    1  UNL1       -0.0069
      9 C         141.6661  142.2017  159.3868 C.ar    1  UNL1        0.0570
     10 C         142.0203  143.3287  160.3111 C.ar    1  UNL1        0.2606
     11 O         142.2453  144.7064  159.7622 O.2     1  UNL1       -0.2670
     12 N         142.1494  143.0781  161.7844 N.ar    1  UNL1       -0.2977
     13 C         141.9243  141.7003  162.3333 C.ar    1  UNL1        0.0594
     14 N         141.9575  139.8213  165.8288 N.pl3   1  UNL1       -0.3059
     15 C         143.1396  139.2072  166.5183 C.3     1  UNL1        0.0909
     16 C         142.8399  139.1470  167.9868 C.3     1  UNL1        0.0244
     17 C         141.4725  139.7239  168.2048 C.3     1  UNL1        0.0344
     18 C         140.9272  140.1406  166.8711 C.3     1  UNL1        0.0921
     19 C         140.7732  139.8602  169.5249 C.3     1  UNL1        0.0406
     20 N         141.7864  139.2160  170.4240 N.3     1  UNL1       -0.3231
     21 C         139.7221  140.2202  170.5326 C.3     1  UNL1        0.0156
     22 C         139.5172  140.5517  169.0841 C.3     1  UNL1        0.0156
     23 H         142.5858  138.9085  169.8701 H       1  UNL1        0.1188
     24 H         141.3655  138.4118  170.8893 H       1  UNL1        0.1188
     25 C         142.5036  144.2051  162.7087 C.3     1  UNL1        0.0885
     26 C         143.5386  145.0277  163.4170 C.3     1  UNL1        0.0246
     27 C         142.0819  145.3344  163.6013 C.3     1  UNL1        0.0246
     28 C         141.0868  139.6970  159.0113 C.3     1  UNL1        0.1118
     29 C         142.1687  138.8372  158.4281 C.2     1  UNL1        0.2302
     30 O         143.5959  139.0445  158.8408 O.2     1  UNL1       -0.2745
     31 N         141.8235  137.7701  157.4321 N.am    1  UNL1       -0.2758
     32 C         142.9054  136.9102  156.8488 C.3     1  UNL1        0.1149
     33 C         140.3964  137.5628  157.0193 C.3     1  UNL1        0.1149
@<TRIPOS>BOND
     1     1     2    1
     2     2     3   ar
     3     3    14    1
     4    14    15    1
     5    15    16    1
     6    16    17    1
     7    17    19    1
     8    19    20    1
     9    19    21    1
    10    21    22    1
    11    17    18    1
    12     3     4   ar
    13     4     5    1
    14     4     6   ar
    15     6     7   ar
    16     7     8   ar
    17     8    28    1
    18    28    29    1
    19    29    30    2
    20    29    31   am
    21    31    32    1
    22    31    33    1
    23     8     9   ar
    24     9    10   ar
    25    10    11    2
    26    10    12   ar
    27    12    25    1
    28    25    26    1
    29    26    27    1
    30    12    13   ar
    31    13     2   ar
    32    18    14    1
    33    13     7   ar
    34    22    19    1
    35    27    25    1
    36    20    23    1
    37    20    24    1
@<TRIPOS>MOLECULE
*****
 33 37 0 0 0
SMALL
GASTEIGER

@<TRIPOS>ATOM
      1 C         141.4851  142.7208  164.8641 C.3     1  UNL1        0.0339
      2 C         141.1881  141.5379  163.9909 C.ar    1  UNL1        0.0095
      3 C         140.6923  140.2606  164.6014 C.ar    1  UNL1        0.0730
      4 C         140.3954  139.0777  163.7282 C.ar    1  UNL1        0.1531
      5 F         139.8995  137.8004  164.3388 F       1  UNL1       -0.2029
      6 C         140.5942  139.1721  162.2444 C.ar    1  UNL1        0.0320
      7 C         141.0900  140.4493  161.6339 C.ar    1  UNL1        0.0145
      8 C         141.2888  140.5437  160.1501 C.ar    1  UNL1       -0.0069
      9 C         141.7846  141.8210  159.5396 C.ar    1  UNL1        0.0570
     10 C         142.0815  143.0039  160.4128 C.ar    1  UNL1        0.2606
     11 O         142.5774  144.2812  159.8022 O.2     1  UNL1       -0.2670
     12 N         141.8827  142.9095  161.8965 N.ar    1  UNL1       -0.2977
     13 C         141.3869  141.6322  162.5071 C.ar    1  UNL1        0.0594
     14 N         140.4935  140.1663  166.0852 N.pl3   1  UNL1       -0.3059
     15 C         139.1762  140.0439  166.7922 C.3     1  UNL1        0.0909
     16 C         139.4456  139.9797  168.2664 C.3     1  UNL1        0.0244
     17 C         140.9294  140.0623  168.4705 C.3     1  UNL1        0.0344
     18 C         141.5770  140.1776  167.1225 C.3     1  UNL1        0.0921
     19 C         141.6406  140.0345  169.7909 C.3     1  UNL1        0.0406
     20 N         140.5879  139.3864  170.6402 N.3     1  UNL1       -0.3231
     21 C         142.7175  140.2319  170.8162 C.3     1  UNL1        0.0156
     22 C         142.9404  140.6731  169.4000 C.3     1  UNL1        0.0156
     23 H         139.7672  139.1842  170.0692 H       1  UNL1        0.1188
     24 H         140.3274  140.0165  171.3988 H       1  UNL1        0.1188
     25 C         142.1797  144.0924  162.7698 C.3     1  UNL1        0.0885
     26 C         143.1567  144.9094  163.5622 C.3     1  UNL1        0.0246
     27 C         141.7171  145.3243  163.4897 C.3     1  UNL1        0.0246
     28 C         140.9918  139.3608  159.2769 C.3     1  UNL1        0.1118
     29 C         142.1160  138.5854  158.6566 C.2     1  UNL1        0.2302
     30 O         143.5089  138.7223  159.1963 O.2     1  UNL1       -0.2745
     31 N         141.8475  137.6731  157.4966 N.am    1  UNL1       -0.2758
     32 C         142.9718  136.8976  156.8763 C.3     1  UNL1        0.1149
     33 C         140.4547  137.5361  156.9569 C.3     1  UNL1        0.1149
@<TRIPOS>BOND
     1     1     2    1
     2     2     3   ar
     3     3    14    1
     4    14    15    1
     5    15    16    1
     6    16    17    1
     7    17    19    1
     8    19    20    1
     9    19    21    1
    10    21    22    1
    11    17    18    1
    12     3     4   ar
    13     4     5    1
    14     4     6   ar
    15     6     7   ar
    16     7     8   ar
    17     8    28    1
    18    28    29    1
    19    29    30    2
    20    29    31   am
    21    31    32    1
    22    31    33    1
    23     8     9   ar
    24     9    10   ar
    25    10    11    2
    26    10    12   ar
    27    12    25    1
    28    25    26    1
    29    26    27    1
    30    12    13   ar
    31    13     2   ar
    32    18    14    1
    33    13     7   ar
    34    22    19    1
    35    27    25    1
    36    20    23    1
    37    20    24    1
@<TRIPOS>MOLECULE
*****
 33 37 0 0 0
SMALL
GASTEIGER

@<TRIPOS>ATOM
      1 C         142.5671  140.6929  164.9527 C.3     1  UNL1        0.0339
      2 C         141.5684  141.5521  164.2355 C.ar    1  UNL1        0.0095
      3 C         140.1851  141.7175  164.7913 C.ar    1  UNL1        0.0730
      4 C         139.1863  142.5767  164.0741 C.ar    1  UNL1        0.1531
      5 F         137.8030  142.7421  164.6300 F       1  UNL1       -0.2029
      6 C         139.5709  143.2704  162.8010 C.ar    1  UNL1        0.0320
      7 C         140.9542  143.1049  162.2451 C.ar    1  UNL1        0.0145
      8 C         141.3389  143.7986  160.9720 C.ar    1  UNL1       -0.0069
      9 C         142.7222  143.6332  160.4161 C.ar    1  UNL1        0.0570
     10 C         143.7209  142.7740  161.1333 C.ar    1  UNL1        0.2606
     11 O         145.1043  142.6086  160.5774 O.2     1  UNL1       -0.2670
     12 N         143.3363  142.0803  162.4064 N.ar    1  UNL1       -0.2977
     13 C         141.9529  142.2458  162.9624 C.ar    1  UNL1        0.0594
     14 N         139.8004  141.0238  166.0645 N.pl3   1  UNL1       -0.3059
     15 C         138.8816  139.8440  166.1829 C.3     1  UNL1        0.0909
     16 C         138.7804  139.4792  167.6343 C.3     1  UNL1        0.0244
     17 C         139.6366  140.4335  168.4130 C.3     1  UNL1        0.0344
     18 C         140.2670  141.3881  167.4428 C.3     1  UNL1        0.0921
     19 C         139.8286  140.4332  169.9006 C.3     1  UNL1        0.0406
     20 N         138.4878  139.9212  170.3362 N.3     1  UNL1       -0.3231
     21 C         140.4864  140.6107  171.2369 C.3     1  UNL1        0.0156
     22 C         141.2363  140.9451  169.9816 C.3     1  UNL1        0.0156
     23 H         137.9072  139.7474  169.5158 H       1  UNL1        0.1188
     24 H         138.0359  140.6152  170.9317 H       1  UNL1        0.1188
     25 C         144.3350  141.2212  163.1237 C.3     1  UNL1        0.0885
     26 C         144.8437  139.8625  163.5045 C.3     1  UNL1        0.0246
     27 C         145.5561  141.0919  163.9851 C.3     1  UNL1        0.0246
     28 C         140.3401  144.6578  160.2547 C.3     1  UNL1        0.1118
     29 C         139.7222  144.1798  158.9743 C.2     1  UNL1        0.2302
     30 O         138.6417  143.1397  159.0053 O.2     1  UNL1       -0.2745
     31 N         140.1846  144.7419  157.6627 N.am    1  UNL1       -0.2758
     32 C         139.5665  144.2640  156.3822 C.3     1  UNL1        0.1149
     33 C         141.2650  145.7820  157.6316 C.3     1  UNL1        0.1149
@<TRIPOS>BOND
     1     1     2    1
     2     2     3   ar
     3     3    14    1
     4    14    15    1
     5    15    16    1
     6    16    17    1
     7    17    19    1
     8    19    20    1
     9    19    21    1
    10    21    22    1
    11    17    18    1
    12     3     4   ar
    13     4     5    1
    14     4     6   ar
    15     6     7   ar
    16     7     8   ar
    17     8    28    1
    18    28    29    1
    19    29    30    2
    20    29    31   am
    21    31    32    1
    22    31    33    1
    23     8     9   ar
    24     9    10   ar
    25    10    11    2
    26    10    12   ar
    27    12    25    1
    28    25    26    1
    29    26    27    1
    30    12    13   ar
    31    13     2   ar
    32    18    14    1
    33    13     7   ar
    34    22    19    1
    35    27    25    1
    36    20    23    1
    37    20    24    1
@<TRIPOS>MOLECULE
*****
 33 37 0 0 0
SMALL
GASTEIGER

@<TRIPOS>ATOM
      1 C         142.3597  142.6666  164.7326 C.3     1  UNL1        0.0339
      2 C         141.7576  141.6273  163.8340 C.ar    1  UNL1        0.0095
      3 C         141.4242  140.2691  164.3763 C.ar    1  UNL1        0.0730
      4 C         140.8221  139.2299  163.4778 C.ar    1  UNL1        0.1531
      5 F         140.4887  137.8716  164.0201 F       1  UNL1       -0.2029
      6 C         140.5535  139.5488  162.0369 C.ar    1  UNL1        0.0320
      7 C         140.8869  140.9070  161.4946 C.ar    1  UNL1        0.0145
      8 C         140.6182  141.2259  160.0537 C.ar    1  UNL1       -0.0069
      9 C         140.9517  142.5841  159.5114 C.ar    1  UNL1        0.0570
     10 C         141.5538  143.6234  160.4100 C.ar    1  UNL1        0.2606
     11 O         141.8872  144.9816  159.8676 O.2     1  UNL1       -0.2670
     12 N         141.8224  143.3045  161.8508 N.ar    1  UNL1       -0.2977
     13 C         141.4890  141.9462  162.3932 C.ar    1  UNL1        0.0594
     14 N         141.6929  139.9502  165.8172 N.pl3   1  UNL1       -0.3059
     15 C         142.9293  139.2968  166.3599 C.3     1  UNL1        0.0909
     16 C         142.7729  139.1714  167.8465 C.3     1  UNL1        0.0244
     17 C         141.4398  139.7472  168.2225 C.3     1  UNL1        0.0344
     18 C         140.7723  140.2285  166.9684 C.3     1  UNL1        0.0921
     19 C         140.8736  139.8276  169.6092 C.3     1  UNL1        0.0406
     20 N         142.0120  139.2406  170.3898 N.3     1  UNL1       -0.3231
     21 C         139.9120  140.1118  170.7248 C.3     1  UNL1        0.0156
     22 C         139.5385  140.4425  169.3101 C.3     1  UNL1        0.0156
     23 H         142.7673  138.9889  169.7522 H       1  UNL1        0.1188
     24 H         141.6919  138.4074  170.8834 H       1  UNL1        0.1188
     25 C         142.4245  144.3437  162.7494 C.3     1  UNL1        0.0885
     26 C         143.6326  145.0301  163.3146 C.3     1  UNL1        0.0246
     27 C         142.2593  145.4574  163.7405 C.3     1  UNL1        0.0246
     28 C         140.0161  140.1867  159.1552 C.3     1  UNL1        0.1118
     29 C         138.5935  140.3223  158.6996 C.2     1  UNL1        0.2302
     30 O         137.4725  139.9159  159.6097 O.2     1  UNL1       -0.2745
     31 N         138.2917  140.8643  157.3339 N.am    1  UNL1       -0.2758
     32 C         136.8690  140.9999  156.8783 C.3     1  UNL1        0.1149
     33 C         139.4126  141.2707  156.4238 C.3     1  UNL1        0.1149
@<TRIPOS>BOND
     1     1     2    1
     2     2     3   ar
     3     3    14    1
     4    14    15    1
     5    15    16    1
     6    16    17    1
     7    17    19    1
     8    19    20    1
     9    19    21    1
    10    21    22    1
    11    17    18    1
    12     3     4   ar
    13     4     5    1
    14     4     6   ar
    15     6     7   ar
    16     7     8   ar
    17     8    28    1
    18    28    29    1
    19    29    30    2
    20    29    31   am
    21    31    32    1
    22    31    33    1
    23     8     9   ar
    24     9    10   ar
    25    10    11    2
    26    10    12   ar
    27    12    25    1
    28    25    26    1
    29    26    27    1
    30    12    13   ar
    31    13     2   ar
    32    18    14    1
    33    13     7   ar
    34    22    19    1
    35    27    25    1
    36    20    23    1
    37    20    24    1
@<TRIPOS>MOLECULE
*****
 33 37 0 0 0
SMALL
GASTEIGER

@<TRIPOS>ATOM
      1 C         140.4191  142.6013  165.6905 C.3     1  UNL1        0.0339
      2 C         141.5478  142.3044  164.7483 C.ar    1  UNL1        0.0095
      3 C         142.6527  141.3811  165.1687 C.ar    1  UNL1        0.0730
      4 C         143.7814  141.0842  164.2265 C.ar    1  UNL1        0.1531
      5 F         144.8863  140.1609  164.6470 F       1  UNL1       -0.2029
      6 C         143.8053  141.7106  162.8638 C.ar    1  UNL1        0.0320
      7 C         142.7004  142.6339  162.4433 C.ar    1  UNL1        0.0145
      8 C         142.7243  143.2604  161.0806 C.ar    1  UNL1       -0.0069
      9 C         141.6195  144.1837  160.6601 C.ar    1  UNL1        0.0570
     10 C         140.4907  144.4805  161.6024 C.ar    1  UNL1        0.2606
     11 O         139.3858  145.4039  161.1819 O.2     1  UNL1       -0.2670
     12 N         140.4668  143.8541  162.9651 N.ar    1  UNL1       -0.2977
     13 C         141.5717  142.9308  163.3856 C.ar    1  UNL1        0.0594
     14 N         142.6288  140.7546  166.5315 N.pl3   1  UNL1       -0.3059
     15 C         142.7744  139.2923  166.8323 C.3     1  UNL1        0.0909
     16 C         142.6908  139.1143  168.3193 C.3     1  UNL1        0.0244
     17 C         142.4935  140.4668  168.9376 C.3     1  UNL1        0.0344
     18 C         142.4552  141.4804  167.8326 C.3     1  UNL1        0.0921
     19 C         142.3583  140.7548  170.4035 C.3     1  UNL1        0.0406
     20 N         143.3861  139.8092  170.9506 N.3     1  UNL1       -0.3231
     21 C         141.8661  141.3713  171.6792 C.3     1  UNL1        0.0156
     22 C         141.2835  141.8005  170.3653 C.3     1  UNL1        0.0156
     23 H         143.8233  139.3005  170.1822 H       1  UNL1        0.1188
     24 H         142.9367  139.1480  171.5841 H       1  UNL1        0.1188
     25 C         139.3381  144.1510  163.9073 C.3     1  UNL1        0.0885
     26 C         138.7963  144.8948  165.0918 C.3     1  UNL1        0.0246
     27 C         137.9250  143.9214  164.3548 C.3     1  UNL1        0.0246
     28 C         143.8530  142.9635  160.1383 C.3     1  UNL1        0.1118
     29 C         143.5619  142.5052  158.7400 C.2     1  UNL1        0.2302
     30 O         143.3124  143.5128  157.6571 O.2     1  UNL1       -0.2745
     31 N         143.5203  141.0394  158.4246 N.am    1  UNL1       -0.2758
     32 C         143.2292  140.5811  157.0262 C.3     1  UNL1        0.1149
     33 C         143.7697  140.0318  159.5074 C.3     1  UNL1        0.1149
@<TRIPOS>BOND
     1     1     2    1
     2     2     3   ar
     3     3    14    1
     4    14    15    1
     5    15    16    1
     6    16    17    1
     7    17    19    1
     8    19    20    1
     9    19    21    1
    10    21    22    1
    11    17    18    1
    12     3     4   ar
    13     4     5    1
    14     4     6   ar
    15     6     7   ar
    16     7     8   ar
    17     8    28    1
    18    28    29    1
    19    29    30    2
    20    29    31   am
    21    31    32    1
    22    31    33    1
    23     8     9   ar
    24     9    10   ar
    25    10    11    2
    26    10    12   ar
    27    12    25    1
    28    25    26    1
    29    26    27    1
    30    12    13   ar
    31    13     2   ar
    32    18    14    1
    33    13     7   ar
    34    22    19    1
    35    27    25    1
    36    20    23    1
    37    20    24    1
@<TRIPOS>MOLECULE
*****
 33 37 0 0 0
SMALL
GASTEIGER

@<TRIPOS>ATOM
      1 C         139.5373  142.8939  164.8189 C.3     1  UNL1        0.0339
      2 C         140.1228  141.6213  164.2823 C.ar    1  UNL1        0.0095
      3 C         140.7878  140.6509  165.2129 C.ar    1  UNL1        0.0730
      4 C         141.3733  139.3784  164.6763 C.ar    1  UNL1        0.1531
      5 F         142.0383  138.4079  165.6069 F       1  UNL1       -0.2029
      6 C         141.2938  139.0763  163.2092 C.ar    1  UNL1        0.0320
      7 C         140.6287  140.0468  162.2787 C.ar    1  UNL1        0.0145
      8 C         140.5492  139.7448  160.8115 C.ar    1  UNL1       -0.0069
      9 C         139.8841  140.7152  159.8810 C.ar    1  UNL1        0.0570
     10 C         139.2987  141.9877  160.4176 C.ar    1  UNL1        0.2606
     11 O         138.6336  142.9582  159.4870 O.2     1  UNL1       -0.2670
     12 N         139.3782  142.2898  161.8847 N.ar    1  UNL1       -0.2977
     13 C         140.0432  141.3193  162.8153 C.ar    1  UNL1        0.0594
     14 N         140.8674  140.9529  166.6800 N.pl3   1  UNL1       -0.3059
     15 C         140.0476  140.3088  167.7585 C.3     1  UNL1        0.0909
     16 C         140.4542  140.9098  169.0713 C.3     1  UNL1        0.0244
     17 C         141.5253  141.9254  168.8041 C.3     1  UNL1        0.0344
     18 C         141.7807  141.9520  167.3263 C.3     1  UNL1        0.0921
     19 C         142.2193  142.7666  169.8341 C.3     1  UNL1        0.0406
     20 N         141.0821  143.6468  170.2607 N.3     1  UNL1       -0.3231
     21 C         143.3082  143.3022  170.7158 C.3     1  UNL1        0.0156
     22 C         143.5975  142.1786  169.7651 C.3     1  UNL1        0.0156
     23 H         140.2440  143.3982  169.7351 H       1  UNL1        0.1188
     24 H         141.3203  144.6219  170.0794 H       1  UNL1        0.1188
     25 C         138.7927  143.5623  162.4212 C.3     1  UNL1        0.0885
     26 C         138.9084  145.0335  162.6899 C.3     1  UNL1        0.0246
     27 C         137.6630  144.2951  163.0820 C.3     1  UNL1        0.0246
     28 C         141.1346  138.4722  160.2749 C.3     1  UNL1        0.1118
     29 C         142.1710  138.5218  159.1917 C.2     1  UNL1        0.2302
     30 O         143.5938  138.8559  159.5296 O.2     1  UNL1       -0.2745
     31 N         141.7847  138.2371  157.7705 N.am    1  UNL1       -0.2758
     32 C         142.8212  138.2867  156.6873 C.3     1  UNL1        0.1149
     33 C         140.3620  137.9030  157.4326 C.3     1  UNL1        0.1149
@<TRIPOS>BOND
     1     1     2    1
     2     2     3   ar
     3     3    14    1
     4    14    15    1
     5    15    16    1
     6    16    17    1
     7    17    19    1
     8    19    20    1
     9    19    21    1
    10    21    22    1
    11    17    18    1
    12     3     4   ar
    13     4     5    1
    14     4     6   ar
    15     6     7   ar
    16     7     8   ar
    17     8    28    1
    18    28    29    1
    19    29    30    2
    20    29    31   am
    21    31    32    1
    22    31    33    1
    23     8     9   ar
    24     9    10   ar
    25    10    11    2
    26    10    12   ar
    27    12    25    1
    28    25    26    1
    29    26    27    1
    30    12    13   ar
    31    13     2   ar
    32    18    14    1
    33    13     7   ar
    34    22    19    1
    35    27    25    1
    36    20    23    1
    37    20    24    1
