@<TRIPOS>MOLECULE
*****
 42 44 0 0 0
SMALL
GASTEIGER

@<TRIPOS>ATOM
      1 CA        138.0786  141.2518  157.2645 C.3     1  ILE1        0.1487
      2 N         137.7592  140.5410  158.5462 N.am    1  ILE1       -0.2970
      3 C         137.9382  140.3909  160.0279 C.2     4  PHE4        0.2412
      4 O         137.0680  139.2298  160.4084 O.2     4  PHE4       -0.2733
      5 CA        138.5676  140.8418  161.3126 C.3     4  PHE4        0.1562
      6 N         139.4788  141.7730  162.0561 N.am    4  PHE4       -0.2696
      7 C         139.4061  141.3273  163.4865 C.3     0  ACE0        0.1153
      8 C         140.4276  142.9347  162.0591 C.2     3  ILE3        0.2439
      9 O         140.8461  143.0905  163.4912 O.2     3  ILE3       -0.2731
     10 CA        141.1598  144.0159  161.3210 C.3     3  ILE3        0.1487
     11 N         141.4791  144.7268  160.0392 N.am    3  ILE3       -0.2970
     12 C         141.3001  144.8768  158.5576 C.2     2  PHE2        0.2412
     13 O         142.1703  146.0379  158.1770 O.2     2  PHE2       -0.2733
     14 CA        140.6707  144.4260  157.2728 C.3     2  PHE2        0.1562
     15 N         139.7595  143.4948  156.5294 N.am    2  PHE2       -0.2696
     16 C         139.8322  143.9405  155.0989 C.3     0  ACE0        0.1153
     17 C         138.8108  142.3331  156.5263 C.2     1  ILE1        0.2439
     18 O         138.3923  142.1773  155.0943 O.2     1  ILE1       -0.2731
     19 H         137.1273  139.8299  158.2926 H       1  ILE1        0.1499
     20 H         142.1111  145.4378  160.2928 H       3  ILE3        0.1499
     21 CB        137.2811  140.5364  156.2146 C.3     1  ILE1        0.0269
     22 CG2       137.9376  139.5020  155.3493 C.3     1  ILE1        0.0022
     23 CD1       135.0125  140.0907  155.0294 C.3     1  ILE1        0.0001
     24 CG1       135.8271  140.8555  156.0301 C.3     1  ILE1        0.0021
     25 CB        141.9573  144.7313  162.3708 C.3     3  ILE3        0.0269
     26 CG2       141.3039  145.7749  163.2276 C.3     3  ILE3        0.0022
     27 CG1       143.4081  144.4032  162.5639 C.3     3  ILE3        0.0021
     28 CD1       143.9945  144.3800  163.9444 C.3     3  ILE3        0.0001
     29 CB        138.0233  139.9142  162.3582 C.3     4  PHE4        0.0555
     30 CG        138.9197  138.8949  162.9965 C.ar    4  PHE4       -0.0200
     31 CD1       140.0698  138.3192  162.2245 C.ar    4  PHE4       -0.0042
     32 CE1       140.9662  137.2999  162.8628 C.ar    4  PHE4       -0.0003
     33 CZ        140.7125  136.8562  164.2730 C.ar    4  PHE4       -0.0000
     34 CE2       139.5624  137.4318  165.0450 C.ar    4  PHE4       -0.0003
     35 CD2       138.6660  138.4512  164.4067 C.ar    4  PHE4       -0.0042
     36 CB        141.2151  145.3536  156.2273 C.3     2  PHE2        0.0555
     37 CG        140.4574  146.5942  155.8575 C.ar    2  PHE2       -0.0200
     38 CD1       139.4419  147.1629  156.8038 C.ar    2  PHE2       -0.0042
     39 CE1       138.6842  148.4034  156.4340 C.ar    2  PHE2       -0.0003
     40 CZ        138.9419  149.0754  155.1179 C.ar    2  PHE2       -0.0000
     41 CE2       139.9573  148.5068  154.1717 C.ar    2  PHE2       -0.0003
     42 CD2       140.7151  147.2661  154.5414 C.ar    2  PHE2       -0.0042
@<TRIPOS>BOND
     1    23    24    1
     2    24    21    1
     3    21    22    1
     4    21     1    1
     5     1     2    1
     6     2     3   am
     7     3     4    2
     8     3     5    1
     9     5    29    1
    10    29    30    1
    11    30    31   ar
    12    31    32   ar
    13    32    33   ar
    14    33    34   ar
    15    34    35   ar
    16     5     6    1
    17     6     7    1
    18     6     8   am
    19     8     9    2
    20     8    10    1
    21    10    25    1
    22    25    26    1
    23    25    27    1
    24    27    28    1
    25    10    11    1
    26    11    12   am
    27    12    13    2
    28    12    14    1
    29    14    36    1
    30    36    37    1
    31    37    38   ar
    32    38    39   ar
    33    39    40   ar
    34    40    41   ar
    35    41    42   ar
    36    14    15    1
    37    15    16    1
    38    15    17   am
    39    17    18    2
    40    17     1    1
    41    35    30   ar
    42    42    37   ar
    43     2    19    1
    44    11    20    1
@<TRIPOS>MOLECULE
*****
 42 44 0 0 0
SMALL
GASTEIGER

@<TRIPOS>ATOM
      1 CA        141.1418  144.0610  161.2627 C.3     1  ILE1        0.1487
      2 N         141.5199  144.7300  159.9745 N.am    1  ILE1       -0.2970
      3 C         141.4392  144.8081  158.4788 C.2     4  PHE4        0.2412
      4 O         142.2840  145.9901  158.1056 O.2     4  PHE4       -0.2733
      5 CA        140.9213  144.2744  157.1761 C.3     4  PHE4        0.1562
      6 N         140.1047  143.2718  156.4158 N.am    4  PHE4       -0.2696
      7 C         140.2587  143.6586  154.9746 C.3     0  ACE0        0.1153
      8 C         139.2086  142.0691  156.4013 C.2     3  ILE3        0.2439
      9 O         138.8986  141.8333  154.9527 O.2     3  ILE3       -0.2731
     10 CA        138.4727  140.9884  157.1367 C.3     3  ILE3        0.1487
     11 N         138.0946  140.3194  158.4249 N.am    3  ILE3       -0.2970
     12 C         138.1753  140.2413  159.9206 C.2     2  PHE2        0.2412
     13 O         137.3305  139.0593  160.2938 O.2     2  PHE2       -0.2733
     14 CA        138.6933  140.7750  161.2233 C.3     2  PHE2        0.1562
     15 N         139.5098  141.7776  161.9836 N.am    2  PHE2       -0.2696
     16 C         139.3558  141.3909  163.4248 C.3     0  ACE0        0.1153
     17 C         140.4060  142.9803  161.9981 C.2     1  ILE1        0.2439
     18 O         140.7159  143.2162  163.4467 O.2     1  ILE1       -0.2731
     19 H         142.1018  145.4792  160.2377 H       1  ILE1        0.1499
     20 H         137.5127  139.5702  158.1617 H       3  ILE3        0.1499
     21 CB        141.8326  144.8563  162.3306 C.3     1  ILE1        0.0269
     22 CG2       141.0794  145.9107  163.0861 C.3     1  ILE1        0.0022
     23 CD1       143.8152  144.9037  164.0090 C.3     1  ILE1        0.0001
     24 CG1       143.2766  144.5971  162.6430 C.3     1  ILE1        0.0021
     25 CB        137.7819  140.1932  156.0688 C.3     3  ILE3        0.0269
     26 CG2       138.5069  139.0765  155.3779 C.3     3  ILE3        0.0022
     27 CG1       136.3662  140.5146  155.6918 C.3     3  ILE3        0.0021
     28 CD1       135.6269  139.6314  154.7308 C.3     3  ILE3        0.0001
     29 CB        141.4979  145.1801  156.1287 C.3     4  PHE4        0.0555
     30 CG        140.7149  146.3663  155.6493 C.ar    4  PHE4       -0.0200
     31 CD1       139.5994  146.9171  156.4873 C.ar    4  PHE4       -0.0042
     32 CE1       138.8165  148.1033  156.0080 C.ar    4  PHE4       -0.0003
     33 CZ        139.1490  148.7388  154.6905 C.ar    4  PHE4       -0.0000
     34 CE2       140.2644  148.1880  153.8525 C.ar    4  PHE4       -0.0003
     35 CD2       141.0474  147.0018  154.3318 C.ar    4  PHE4       -0.0042
     36 CB        138.1166  139.8693  162.2707 C.3     2  PHE2        0.0555
     37 CG        138.9938  138.8677  162.9616 C.ar    2  PHE2       -0.0200
     38 CD1       140.1562  138.2604  162.2336 C.ar    2  PHE2       -0.0042
     39 CE1       141.0334  137.2588  162.9244 C.ar    2  PHE2       -0.0003
     40 CZ        140.7482  136.8644  164.3433 C.ar    2  PHE2       -0.0000
     41 CE2       139.5858  137.4717  165.0713 C.ar    2  PHE2       -0.0003
     42 CD2       138.7085  138.4734  164.3804 C.ar    2  PHE2       -0.0042
@<TRIPOS>BOND
     1    23    24    1
     2    24    21    1
     3    21    22    1
     4    21     1    1
     5     1     2    1
     6     2     3   am
     7     3     4    2
     8     3     5    1
     9     5    29    1
    10    29    30    1
    11    30    31   ar
    12    31    32   ar
    13    32    33   ar
    14    33    34   ar
    15    34    35   ar
    16     5     6    1
    17     6     7    1
    18     6     8   am
    19     8     9    2
    20     8    10    1
    21    10    25    1
    22    25    26    1
    23    25    27    1
    24    27    28    1
    25    10    11    1
    26    11    12   am
    27    12    13    2
    28    12    14    1
    29    14    36    1
    30    36    37    1
    31    37    38   ar
    32    38    39   ar
    33    39    40   ar
    34    40    41   ar
    35    41    42   ar
    36    14    15    1
    37    15    16    1
    38    15    17   am
    39    17    18    2
    40    17     1    1
    41    35    30   ar
    42    42    37   ar
    43     2    19    1
    44    11    20    1
@<TRIPOS>MOLECULE
*****
 42 44 0 0 0
SMALL
GASTEIGER

@<TRIPOS>ATOM
      1 CA        142.6194  139.6467  157.1120 C.3     1  ILE1        0.1487
      2 N         142.6527  138.8606  158.3891 N.am    1  ILE1       -0.2970
      3 C         142.6437  138.8172  159.8883 C.2     4  PHE4        0.2412
      4 O         142.7210  137.3598  160.2351 O.2     4  PHE4       -0.2733
      5 CA        142.5946  139.5281  161.2083 C.3     4  PHE4        0.1562
      6 N         142.5186  140.8030  161.9950 N.am    4  PHE4       -0.2696
      7 C         142.5312  140.3736  163.4322 C.3     0  ACE0        0.1153
      8 C         142.4362  142.3001  162.0379 C.2     3  ILE3        0.2439
      9 O         142.4060  142.6457  163.4973 O.2     3  ILE3       -0.2731
     10 CA        142.3693  143.6184  161.3253 C.3     3  ILE3        0.1487
     11 N         142.3359  144.4045  160.0482 N.am    3  ILE3       -0.2970
     12 C         142.3450  144.4479  158.5490 C.2     2  PHE2        0.2412
     13 O         142.2677  145.9052  158.2022 O.2     2  PHE2       -0.2733
     14 CA        142.3941  143.7369  157.2290 C.3     2  PHE2        0.1562
     15 N         142.4700  142.4620  156.4423 N.am    2  PHE2       -0.2696
     16 C         142.4575  142.8915  155.0051 C.3     0  ACE0        0.1153
     17 C         142.5525  140.9650  156.3995 C.2     1  ILE1        0.2439
     18 O         142.5826  140.6194  154.9401 O.2     1  ILE1       -0.2731
     19 H         142.7066  137.9188  158.1073 H       1  ILE1        0.1499
     20 H         142.2821  145.3462  160.3301 H       3  ILE3        0.1499
     21 CB        142.6841  138.6188  156.0215 C.3     1  ILE1        0.0269
     22 CG2       141.4196  138.1018  155.4021 C.3     1  ILE1        0.0022
     23 CD1       144.2613  136.6310  155.4635 C.3     1  ILE1        0.0001
     24 CG1       144.0134  138.1078  155.5504 C.3     1  ILE1        0.0021
     25 CB        142.3046  144.6463  162.4158 C.3     3  ILE3        0.0269
     26 CG2       143.5682  145.1486  163.0490 C.3     3  ILE3        0.0022
     27 CG1       140.9762  145.1719  162.8731 C.3     3  ILE3        0.0021
     28 CD1       140.1460  146.0158  161.9518 C.3     3  ILE3        0.0001
     29 CB        142.6465  138.4388  162.2382 C.3     4  PHE4        0.0555
     30 CG        141.3965  138.0269  162.9579 C.ar    4  PHE4       -0.0200
     31 CD1       141.4717  137.5473  164.3772 C.ar    4  PHE4       -0.0042
     32 CE1       140.2218  137.1354  165.0968 C.ar    4  PHE4       -0.0003
     33 CZ        138.8966  137.2031  164.3973 C.ar    4  PHE4       -0.0000
     34 CE2       138.8214  137.6828  162.9781 C.ar    4  PHE4       -0.0003
     35 CD2       140.0714  138.0947  162.2583 C.ar    4  PHE4       -0.0042
     36 CB        142.3422  144.8262  156.1991 C.3     2  PHE2        0.0555
     37 CG        141.0226  145.4133  155.7942 C.ar    2  PHE2       -0.0200
     38 CD1       139.7491  144.6889  156.1159 C.ar    2  PHE2       -0.0042
     39 CE1       138.4295  145.2760  155.7110 C.ar    2  PHE2       -0.0003
     40 CZ        138.3833  146.5874  154.9843 C.ar    2  PHE2       -0.0000
     41 CE2       139.6568  147.3118  154.6626 C.ar    2  PHE2       -0.0003
     42 CD2       140.9765  146.7247  155.0675 C.ar    2  PHE2       -0.0042
@<TRIPOS>BOND
     1    23    24    1
     2    24    21    1
     3    21    22    1
     4    21     1    1
     5     1     2    1
     6     2     3   am
     7     3     4    2
     8     3     5    1
     9     5    29    1
    10    29    30    1
    11    30    31   ar
    12    31    32   ar
    13    32    33   ar
    14    33    34   ar
    15    34    35   ar
    16     5     6    1
    17     6     7    1
    18     6     8   am
    19     8     9    2
    20     8    10    1
    21    10    25    1
    22    25    26    1
    23    25    27    1
    24    27    28    1
    25    10    11    1
    26    11    12   am
    27    12    13    2
    28    12    14    1
    29    14    36    1
    30    36    37    1
    31    37    38   ar
    32    38    39   ar
    33    39    40   ar
    34    40    41   ar
    35    41    42   ar
    36    14    15    1
    37    15    16    1
    38    15    17   am
    39    17    18    2
    40    17     1    1
    41    35    30   ar
    42    42    37   ar
    43     2    19    1
    44    11    20    1
@<TRIPOS>MOLECULE
*****
 42 44 0 0 0
SMALL
GASTEIGER

@<TRIPOS>ATOM
      1 CA        142.3789  143.6088  161.3081 C.3     1  ILE1        0.1487
      2 N         142.3387  144.3963  160.0320 N.am    1  ILE1       -0.2970
      3 C         142.3373  144.4411  158.5328 C.2     4  PHE4        0.2412
      4 O         142.2614  145.8990  158.1880 O.2     4  PHE4       -0.2733
      5 CA        142.3753  143.7313  157.2118 C.3     4  PHE4        0.1562
      6 N         142.4423  142.4570  156.4234 N.am    4  PHE4       -0.2696
      7 C         142.4208  142.8878  154.9867 C.3     0  ACE0        0.1153
      8 C         142.5205  140.9598  156.3785 C.2     3  ILE3        0.2439
      9 O         142.5395  140.6155  154.9187 O.2     3  ILE3       -0.2731
     10 CA        142.5889  139.6406  157.0893 C.3     3  ILE3        0.1487
     11 N         142.6292  138.8532  158.3654 N.am    3  ILE3       -0.2970
     12 C         142.6305  138.8084  159.8647 C.2     2  PHE2        0.2412
     13 O         142.7064  137.3504  160.2095 O.2     2  PHE2       -0.2733
     14 CA        142.5926  139.5181  161.1856 C.3     2  PHE2        0.1562
     15 N         142.5255  140.7925  161.9741 N.am    2  PHE2       -0.2696
     16 C         142.5470  140.3616  163.4107 C.3     0  ACE0        0.1153
     17 C         142.4473  142.2897  162.0189 C.2     1  ILE1        0.2439
     18 O         142.4284  142.6340  163.4788 O.2     1  ILE1       -0.2731
     19 H         142.2893  145.3379  160.3151 H       1  ILE1        0.1499
     20 H         142.6785  137.9116  158.0823 H       3  ILE3        0.1499
     21 CB        142.3246  144.6359  162.4000 C.3     1  ILE1        0.0269
     22 CG2       143.5948  145.1503  163.0097 C.3     1  ILE1        0.0022
     23 CD1       140.1507  145.9958  161.9816 C.3     1  ILE1        0.0001
     24 CG1       140.9999  145.1486  162.8821 C.3     1  ILE1        0.0021
     25 CB        142.6433  138.6136  155.9974 C.3     3  ILE3        0.0269
     26 CG2       141.3730  138.0997  155.3873 C.3     3  ILE3        0.0022
     27 CG1       143.9679  138.1004  155.5157 C.3     3  ILE3        0.0021
     28 CD1       144.2363  136.6248  155.4904 C.3     3  ILE3        0.0001
     29 CB        142.3190  144.8217  156.1833 C.3     4  PHE4        0.0555
     30 CG        140.9973  145.4056  155.7808 C.ar    4  PHE4       -0.0200
     31 CD1       139.7288  144.6573  156.0655 C.ar    4  PHE4       -0.0042
     32 CE1       138.4071  145.2412  155.6630 C.ar    4  PHE4       -0.0003
     33 CZ        138.3537  146.5734  154.9758 C.ar    4  PHE4       -0.0000
     34 CE2       139.6221  147.3218  154.6911 C.ar    4  PHE4       -0.0003
     35 CD2       140.9440  146.7379  155.0936 C.ar    4  PHE4       -0.0042
     36 CB        142.6488  138.4277  162.2141 C.3     2  PHE2        0.0555
     37 CG        141.4014  138.0133  162.9368 C.ar    2  PHE2       -0.0200
     38 CD1       141.4828  137.5203  164.3512 C.ar    2  PHE2       -0.0042
     39 CE1       140.2354  137.1059  165.0739 C.ar    2  PHE2       -0.0003
     40 CZ        138.9067  137.1844  164.3822 C.ar    2  PHE2       -0.0000
     41 CE2       138.8253  137.6774  162.9679 C.ar    2  PHE2       -0.0003
     42 CD2       140.0727  138.0918  162.2451 C.ar    2  PHE2       -0.0042
@<TRIPOS>BOND
     1    23    24    1
     2    24    21    1
     3    21    22    1
     4    21     1    1
     5     1     2    1
     6     2     3   am
     7     3     4    2
     8     3     5    1
     9     5    29    1
    10    29    30    1
    11    30    31   ar
    12    31    32   ar
    13    32    33   ar
    14    33    34   ar
    15    34    35   ar
    16     5     6    1
    17     6     7    1
    18     6     8   am
    19     8     9    2
    20     8    10    1
    21    10    25    1
    22    25    26    1
    23    25    27    1
    24    27    28    1
    25    10    11    1
    26    11    12   am
    27    12    13    2
    28    12    14    1
    29    14    36    1
    30    36    37    1
    31    37    38   ar
    32    38    39   ar
    33    39    40   ar
    34    40    41   ar
    35    41    42   ar
    36    14    15    1
    37    15    16    1
    38    15    17   am
    39    17    18    2
    40    17     1    1
    41    35    30   ar
    42    42    37   ar
    43     2    19    1
    44    11    20    1
@<TRIPOS>MOLECULE
*****
 42 44 0 0 0
SMALL
GASTEIGER

@<TRIPOS>ATOM
      1 CA        143.0299  141.8412  157.0469 C.3     1  ILE1        0.1487
      2 N         142.4791  143.2202  156.8347 N.am    1  ILE1       -0.2970
      3 C         141.3398  144.1201  156.4580 C.2     4  PHE4        0.2412
      4 O         141.8871  145.5114  156.5808 O.2     4  PHE4       -0.2733
      5 CA        139.9172  144.3001  156.0178 C.3     4  PHE4        0.1562
      6 N         138.5924  143.7116  155.6321 N.am    4  PHE4       -0.2696
      7 C         137.7176  144.8914  155.3272 C.3     0  ACE0        0.1153
      8 C         137.7206  142.5126  155.4041 C.2     3  ILE3        0.2439
      9 O         136.3944  143.0716  154.9813 O.2     3  ILE3       -0.2731
     10 CA        137.5351  141.0241  155.3950 C.3     3  ILE3        0.1487
     11 N         138.0859  139.6451  155.6073 N.am    3  ILE3       -0.2970
     12 C         139.2252  138.7451  155.9839 C.2     2  PHE2        0.2412
     13 O         138.6779  137.3538  155.8612 O.2     2  PHE2       -0.2733
     14 CA        140.6478  138.5651  156.4241 C.3     2  PHE2        0.1562
     15 N         141.9725  139.1536  156.8099 N.am    2  PHE2       -0.2696
     16 C         142.8474  137.9739  157.1147 C.3     0  ACE0        0.1153
     17 C         142.8444  140.3527  157.0378 C.2     1  ILE1        0.2439
     18 O         144.1706  139.7937  157.4607 O.2     1  ILE1       -0.2731
     19 H         143.2253  143.8275  157.0432 H       1  ILE1        0.1499
     20 H         137.3396  139.0378  155.3987 H       3  ILE3        0.1499
     21 CB        144.4520  142.0526  157.4745 C.3     1  ILE1        0.0269
     22 CG2       144.7662  142.3604  158.9085 C.3     1  ILE1        0.0022
     23 CD1       146.9054  142.5440  156.7752 C.3     1  ILE1        0.0001
     24 CG1       145.5600  141.9563  156.4680 C.3     1  ILE1        0.0021
     25 CB        136.1130  140.8126  154.9675 C.3     3  ILE3        0.0269
     26 CG2       135.7807  140.6702  153.5117 C.3     3  ILE3        0.0022
     27 CG1       135.0230  140.7435  155.9957 C.3     3  ILE3        0.0021
     28 CD1       133.5856  140.7731  155.5681 C.3     3  ILE3        0.0001
     29 CB        139.7281  145.7844  155.9127 C.3     4  PHE4        0.0555
     30 CG        140.1407  146.5065  154.6644 C.ar    4  PHE4       -0.0200
     31 CD1       139.9022  147.9820  154.5378 C.ar    4  PHE4       -0.0042
     32 CE1       140.3148  148.7041  153.2895 C.ar    4  PHE4       -0.0003
     33 CZ        140.9659  147.9507  152.1677 C.ar    4  PHE4       -0.0000
     34 CE2       141.2044  146.4752  152.2942 C.ar    4  PHE4       -0.0003
     35 CD2       140.7918  145.7531  153.5426 C.ar    4  PHE4       -0.0042
     36 CB        140.8369  137.0808  156.5293 C.3     2  PHE2        0.0555
     37 CG        141.1792  136.2800  155.3080 C.ar    2  PHE2       -0.0200
     38 CD1       141.2480  134.7836  155.3874 C.ar    2  PHE2       -0.0042
     39 CE1       141.5903  133.9828  154.1661 C.ar    2  PHE2       -0.0003
     40 CZ        141.8638  134.6782  152.8655 C.ar    2  PHE2       -0.0000
     41 CE2       141.7951  136.1745  152.7862 C.ar    2  PHE2       -0.0003
     42 CD2       141.4527  136.9754  154.0075 C.ar    2  PHE2       -0.0042
@<TRIPOS>BOND
     1    23    24    1
     2    24    21    1
     3    21    22    1
     4    21     1    1
     5     1     2    1
     6     2     3   am
     7     3     4    2
     8     3     5    1
     9     5    29    1
    10    29    30    1
    11    30    31   ar
    12    31    32   ar
    13    32    33   ar
    14    33    34   ar
    15    34    35   ar
    16     5     6    1
    17     6     7    1
    18     6     8   am
    19     8     9    2
    20     8    10    1
    21    10    25    1
    22    25    26    1
    23    25    27    1
    24    27    28    1
    25    10    11    1
    26    11    12   am
    27    12    13    2
    28    12    14    1
    29    14    36    1
    30    36    37    1
    31    37    38   ar
    32    38    39   ar
    33    39    40   ar
    34    40    41   ar
    35    41    42   ar
    36    14    15    1
    37    15    16    1
    38    15    17   am
    39    17    18    2
    40    17     1    1
    41    35    30   ar
    42    42    37   ar
    43     2    19    1
    44    11    20    1
@<TRIPOS>MOLECULE
*****
 42 44 0 0 0
SMALL
GASTEIGER

@<TRIPOS>ATOM
      1 CA        142.2901  139.4286  160.3304 C.3     1  ILE1        0.1487
      2 N         142.0899  140.6066  161.2373 N.am    1  ILE1       -0.2970
      3 C         141.7367  142.0513  161.4314 C.2     4  PHE4        0.2412
      4 O         141.8497  142.2836  162.9090 O.2     4  PHE4       -0.2733
      5 CA        141.3248  143.3760  160.8606 C.3     4  PHE4        0.1562
      6 N         140.9648  144.2254  159.6779 N.am    4  PHE4       -0.2696
      7 C         140.6783  145.5831  160.2479 C.3     0  ACE0        0.1153
      8 C         140.7531  144.3722  158.2003 C.2     3  ILE3        0.2439
      9 O         140.3570  145.8058  158.0052 O.2     3  ILE3       -0.2731
     10 CA        140.7463  143.7769  156.8234 C.3     3  ILE3        0.1487
     11 N         140.9465  142.5989  155.9165 N.am    3  ILE3       -0.2970
     12 C         141.2997  141.1542  155.7224 C.2     2  PHE2        0.2412
     13 O         141.1867  140.9219  154.2448 O.2     2  PHE2       -0.2733
     14 CA        141.7116  139.8295  156.2932 C.3     2  PHE2        0.1562
     15 N         142.0716  138.9801  157.4759 N.am    2  PHE2       -0.2696
     16 C         142.3581  137.6224  156.9059 C.3     0  ACE0        0.1153
     17 C         142.2833  138.8333  158.9535 C.2     1  ILE1        0.2439
     18 O         142.6794  137.3997  159.1486 O.2     1  ILE1       -0.2731
     19 H         142.2842  140.2681  162.1412 H       1  ILE1        0.1499
     20 H         140.7522  142.9374  155.0127 H       3  ILE3        0.1499
     21 CB        142.6896  138.3032  161.2380 C.3     1  ILE1        0.0269
     22 CG2       144.1359  137.9321  161.3807 C.3     1  ILE1        0.0022
     23 CD1       141.6162  137.6140  163.5014 C.3     1  ILE1        0.0001
     24 CG1       141.6428  137.5489  162.0030 C.3     1  ILE1        0.0021
     25 CB        140.3468  144.9023  155.9158 C.3     3  ILE3        0.0269
     26 CG2       141.3985  145.7584  155.2749 C.3     3  ILE3        0.0022
     27 CG1       138.8955  145.1715  155.6490 C.3     3  ILE3        0.0021
     28 CD1       138.4623  146.5169  155.1468 C.3     3  ILE3        0.0001
     29 CB        141.2247  144.2939  162.0428 C.3     4  PHE4        0.0555
     30 CG        140.0183  144.2420  162.9326 C.ar    4  PHE4       -0.0200
     31 CD1       138.7457  143.6227  162.4354 C.ar    4  PHE4       -0.0042
     32 CE1       137.5392  143.5709  163.3251 C.ar    4  PHE4       -0.0003
     33 CZ        137.6053  144.1382  164.7121 C.ar    4  PHE4       -0.0000
     34 CE2       138.8778  144.7575  165.2093 C.ar    4  PHE4       -0.0003
     35 CD2       140.0843  144.8094  164.3195 C.ar    4  PHE4       -0.0042
     36 CB        141.8117  138.9116  155.1110 C.3     2  PHE2        0.0555
     37 CG        140.5701  138.3145  154.5179 C.ar    2  PHE2       -0.0200
     38 CD1       140.6172  137.6837  153.1577 C.ar    2  PHE2       -0.0042
     39 CE1       139.3756  137.0865  152.5646 C.ar    2  PHE2       -0.0003
     40 CZ        138.0869  137.1201  153.3316 C.ar    2  PHE2       -0.0000
     41 CE2       138.0398  137.7508  154.6917 C.ar    2  PHE2       -0.0003
     42 CD2       139.2815  138.3481  155.2849 C.ar    2  PHE2       -0.0042
@<TRIPOS>BOND
     1    23    24    1
     2    24    21    1
     3    21    22    1
     4    21     1    1
     5     1     2    1
     6     2     3   am
     7     3     4    2
     8     3     5    1
     9     5    29    1
    10    29    30    1
    11    30    31   ar
    12    31    32   ar
    13    32    33   ar
    14    33    34   ar
    15    34    35   ar
    16     5     6    1
    17     6     7    1
    18     6     8   am
    19     8     9    2
    20     8    10    1
    21    10    25    1
    22    25    26    1
    23    25    27    1
    24    27    28    1
    25    10    11    1
    26    11    12   am
    27    12    13    2
    28    12    14    1
    29    14    36    1
    30    36    37    1
    31    37    38   ar
    32    38    39   ar
    33    39    40   ar
    34    40    41   ar
    35    41    42   ar
    36    14    15    1
    37    15    16    1
    38    15    17   am
    39    17    18    2
    40    17     1    1
    41    35    30   ar
    42    42    37   ar
    43     2    19    1
    44    11    20    1
@<TRIPOS>MOLECULE
*****
 42 44 0 0 0
SMALL
GASTEIGER

@<TRIPOS>ATOM
      1 CA        137.5525  140.9505  155.4260 C.3     1  ILE1        0.1487
      2 N         138.0927  139.5663  155.6320 N.am    1  ILE1       -0.2970
      3 C         139.2246  138.6560  156.0061 C.2     4  PHE4        0.2412
      4 O         138.6673  137.2695  155.8747 O.2     4  PHE4       -0.2733
      5 CA        140.6449  138.4632  156.4482 C.3     4  PHE4        0.1562
      6 N         141.9731  139.0398  156.8398 N.am    4  PHE4       -0.2696
      7 C         142.8386  137.8520  157.1401 C.3     0  ACE0        0.1153
      8 C         142.8533  140.2311  157.0760 C.2     3  ILE3        0.2439
      9 O         144.1745  139.6601  157.4986 O.2     3  ILE3       -0.2731
     10 CA        143.0497  141.7181  157.0936 C.3     3  ILE3        0.1487
     11 N         142.5095  143.1023  156.8876 N.am    3  ILE3       -0.2970
     12 C         141.3777  144.0127  156.5135 C.2     2  PHE2        0.2412
     13 O         141.9350  145.3992  156.6449 O.2     2  PHE2       -0.2733
     14 CA        139.9573  144.2055  156.0714 C.3     2  PHE2        0.1562
     15 N         138.6291  143.6288  155.6798 N.am    2  PHE2       -0.2696
     16 C         137.7636  144.8167  155.3795 C.3     0  ACE0        0.1153
     17 C         137.7489  142.4375  155.4436 C.2     1  ILE1        0.2439
     18 O         136.4278  143.0085  155.0210 O.2     1  ILE1       -0.2731
     19 H         137.3424  138.9657  155.4186 H       1  ILE1        0.1499
     20 H         143.2598  143.7030  157.1009 H       3  ILE3        0.1499
     21 CB        136.1298  140.7518  154.9945 C.3     1  ILE1        0.0269
     22 CG2       135.8014  140.6037  153.5384 C.3     1  ILE1        0.0022
     23 CD1       133.6817  140.1742  155.6450 C.3     1  ILE1        0.0001
     24 CG1       135.0353  140.7012  156.0189 C.3     1  ILE1        0.0021
     25 CB        144.4725  141.9168  157.5251 C.3     3  ILE3        0.0269
     26 CG2       144.7766  142.3594  158.9257 C.3     3  ILE3        0.0022
     27 CG1       145.5912  141.6729  156.5562 C.3     3  ILE3        0.0021
     28 CD1       146.8259  142.5232  156.6066 C.3     3  ILE3        0.0001
     29 CB        140.8229  136.9769  156.5457 C.3     4  PHE4        0.0555
     30 CG        141.1864  136.1835  155.3258 C.ar    4  PHE4       -0.0200
     31 CD1       141.3112  134.6911  155.4115 C.ar    4  PHE4       -0.0042
     32 CE1       141.6747  133.8976  154.1916 C.ar    4  PHE4       -0.0003
     33 CZ        141.9136  134.5964  152.8860 C.ar    4  PHE4       -0.0000
     34 CE2       141.7888  136.0888  152.8003 C.ar    4  PHE4       -0.0003
     35 CD2       141.4252  136.8823  154.0202 C.ar    4  PHE4       -0.0042
     36 CB        139.7794  145.6917  155.9739 C.3     2  PHE2        0.0555
     37 CG        140.1748  146.4137  154.7200 C.ar    2  PHE2       -0.0200
     38 CD1       140.8050  145.6592  153.5870 C.ar    2  PHE2       -0.0042
     39 CE1       141.2005  146.3812  152.3332 C.ar    2  PHE2       -0.0003
     40 CZ        140.9658  147.8578  152.2122 C.ar    2  PHE2       -0.0000
     41 CE2       140.3356  148.6123  153.3451 C.ar    2  PHE2       -0.0003
     42 CD2       139.9401  147.8903  154.5991 C.ar    2  PHE2       -0.0042
@<TRIPOS>BOND
     1    23    24    1
     2    24    21    1
     3    21    22    1
     4    21     1    1
     5     1     2    1
     6     2     3   am
     7     3     4    2
     8     3     5    1
     9     5    29    1
    10    29    30    1
    11    30    31   ar
    12    31    32   ar
    13    32    33   ar
    14    33    34   ar
    15    34    35   ar
    16     5     6    1
    17     6     7    1
    18     6     8   am
    19     8     9    2
    20     8    10    1
    21    10    25    1
    22    25    26    1
    23    25    27    1
    24    27    28    1
    25    10    11    1
    26    11    12   am
    27    12    13    2
    28    12    14    1
    29    14    36    1
    30    36    37    1
    31    37    38   ar
    32    38    39   ar
    33    39    40   ar
    34    40    41   ar
    35    41    42   ar
    36    14    15    1
    37    15    16    1
    38    15    17   am
    39    17    18    2
    40    17     1    1
    41    35    30   ar
    42    42    37   ar
    43     2    19    1
    44    11    20    1
@<TRIPOS>MOLECULE
*****
 42 44 0 0 0
SMALL
GASTEIGER

@<TRIPOS>ATOM
      1 CA        140.7457  143.8042  156.8330 C.3     1  ILE1        0.1487
      2 N         140.9408  142.6292  155.9212 N.am    1  ILE1       -0.2970
      3 C         141.2885  141.1839  155.7210 C.2     4  PHE4        0.2412
      4 O         141.1738  140.9582  154.2425 O.2     4  PHE4       -0.2733
      5 CA        141.6956  139.8553  156.2861 C.3     4  PHE4        0.1562
      6 N         142.0529  138.9997  157.4651 N.am    4  PHE4       -0.2696
      7 C         142.3339  137.6433  156.8894 C.3     0  ACE0        0.1153
      8 C         142.2648  138.8461  158.9420 C.2     3  ILE3        0.2439
      9 O         142.6555  137.4102  159.1310 O.2     3  ILE3       -0.2731
     10 CA        142.2745  139.4357  160.3213 C.3     3  ILE3        0.1487
     11 N         142.0793  140.6107  161.2331 N.am    3  ILE3       -0.2970
     12 C         141.7317  142.0559  161.4333 C.2     2  PHE2        0.2412
     13 O         141.8464  142.2817  162.9118 O.2     2  PHE2       -0.2733
     14 CA        141.3246  143.3845  160.8682 C.3     2  PHE2        0.1562
     15 N         140.9673  144.2402  159.6892 N.am    2  PHE2       -0.2696
     16 C         140.6863  145.5966  160.2648 C.3     0  ACE0        0.1153
     17 C         140.7554  144.3938  158.2123 C.2     1  ILE1        0.2439
     18 O         140.3647  145.8297  158.0233 O.2     1  ILE1       -0.2731
     19 H         140.7474  142.9721  155.0188 H       1  ILE1        0.1499
     20 H         142.2727  140.2678  162.1355 H       3  ILE3        0.1499
     21 CB        140.3500  144.9348  155.9302 C.3     1  ILE1        0.0269
     22 CG2       141.4049  145.7828  155.2838 C.3     1  ILE1        0.0022
     23 CD1       138.4778  146.5575  155.1482 C.3     1  ILE1        0.0001
     24 CG1       138.8994  145.2173  155.6737 C.3     1  ILE1        0.0021
     25 CB        142.6702  138.3051  161.2241 C.3     3  ILE3        0.0269
     26 CG2       144.1109  137.9028  161.3349 C.3     3  ILE3        0.0022
     27 CG1       141.6251  137.5768  162.0162 C.3     3  ILE3        0.0021
     28 CD1       141.6300  137.6541  163.5142 C.3     3  ILE3        0.0001
     29 CB        141.7916  138.9419  155.1001 C.3     4  PHE4        0.0555
     30 CG        140.5493  138.3355  154.5180 C.ar    4  PHE4       -0.0200
     31 CD1       140.5862  137.7154  153.1526 C.ar    4  PHE4       -0.0042
     32 CE1       139.3439  137.1090  152.5705 C.ar    4  PHE4       -0.0003
     33 CZ        138.0646  137.1227  153.3536 C.ar    4  PHE4       -0.0000
     34 CE2       138.0277  137.7427  154.7190 C.ar    4  PHE4       -0.0003
     35 CD2       139.2700  138.3492  155.3012 C.ar    4  PHE4       -0.0042
     36 CB        141.2286  144.2979  162.0542 C.3     2  PHE2        0.0555
     37 CG        140.0214  144.2485  162.9431 C.ar    2  PHE2       -0.0200
     38 CD1       140.0902  144.8081  164.3332 C.ar    2  PHE2       -0.0042
     39 CE1       138.8830  144.7587  165.2221 C.ar    2  PHE2       -0.0003
     40 CZ        137.6070  144.1497  164.7211 C.ar    2  PHE2       -0.0000
     41 CE2       137.5383  143.5901  163.3311 C.ar    2  PHE2       -0.0003
     42 CD2       138.7455  143.6395  162.4421 C.ar    2  PHE2       -0.0042
@<TRIPOS>BOND
     1    23    24    1
     2    24    21    1
     3    21    22    1
     4    21     1    1
     5     1     2    1
     6     2     3   am
     7     3     4    2
     8     3     5    1
     9     5    29    1
    10    29    30    1
    11    30    31   ar
    12    31    32   ar
    13    32    33   ar
    14    33    34   ar
    15    34    35   ar
    16     5     6    1
    17     6     7    1
    18     6     8   am
    19     8     9    2
    20     8    10    1
    21    10    25    1
    22    25    26    1
    23    25    27    1
    24    27    28    1
    25    10    11    1
    26    11    12   am
    27    12    13    2
    28    12    14    1
    29    14    36    1
    30    36    37    1
    31    37    38   ar
    32    38    39   ar
    33    39    40   ar
    34    40    41   ar
    35    41    42   ar
    36    14    15    1
    37    15    16    1
    38    15    17   am
    39    17    18    2
    40    17     1    1
    41    35    30   ar
    42    42    37   ar
    43     2    19    1
    44    11    20    1
@<TRIPOS>MOLECULE
*****
 42 44 0 0 0
SMALL
GASTEIGER

@<TRIPOS>ATOM
      1 CA        140.6822  144.7655  157.0355 C.3     1  ILE1        0.1487
      2 N         140.2961  145.2960  158.3844 N.am    1  ILE1       -0.2970
      3 C         140.4221  145.2612  159.8787 C.2     4  PHE4        0.2412
      4 O         139.4980  146.3353  160.3713 O.2     4  PHE4       -0.2733
      5 CA        141.0263  144.6705  161.1180 C.3     4  PHE4        0.1562
      6 N         141.9470  143.6821  161.7703 N.am    4  PHE4       -0.2696
      7 C         141.8123  143.9388  163.2420 C.3     0  ACE0        0.1153
      8 C         142.9374  142.5610  161.6607 C.2     3  ILE3        0.2439
      9 O         143.3154  142.2372  163.0758 O.2     3  ILE3       -0.2731
     10 CA        143.7322  141.6073  160.8187 C.3     3  ILE3        0.1487
     11 N         144.1183  141.0769  159.4698 N.am    3  ILE3       -0.2970
     12 C         143.9923  141.1116  157.9755 C.2     2  PHE2        0.2412
     13 O         144.9164  140.0376  157.4829 O.2     2  PHE2       -0.2733
     14 CA        143.3881  141.7023  156.7362 C.3     2  PHE2        0.1562
     15 N         142.4673  142.6907  156.0840 N.am    2  PHE2       -0.2696
     16 C         142.6020  142.4341  154.6122 C.3     0  ACE0        0.1153
     17 C         141.4770  143.8119  156.1935 C.2     1  ILE1        0.2439
     18 O         141.0990  144.1357  154.7784 O.2     1  ILE1       -0.2731
     19 H         139.6468  146.0127  158.2001 H       1  ILE1        0.1499
     20 H         144.7675  140.3602  159.6541 H       3  ILE3        0.1499
     21 CB        139.8928  145.5829  156.0564 C.3     1  ILE1        0.0269
     22 CG2       138.5568  145.0965  155.5784 C.3     1  ILE1        0.0022
     23 CD1       139.8024  147.5642  154.3782 C.3     1  ILE1        0.0001
     24 CG1       140.4394  146.8867  155.5551 C.3     1  ILE1        0.0021
     25 CB        144.5215  140.7899  161.7979 C.3     3  ILE3        0.0269
     26 CG2       145.5307  141.4536  162.6873 C.3     3  ILE3        0.0022
     27 CG1       144.3018  139.3089  161.8876 C.3     3  ILE3        0.0021
     28 CD1       143.3165  138.7552  162.8738 C.3     3  ILE3        0.0001
     29 CB        140.4150  145.4388  162.2521 C.3     4  PHE4        0.0555
     30 CG        139.3614  144.8010  163.1082 C.ar    4  PHE4       -0.0200
     31 CD1       139.2331  145.1871  164.5521 C.ar    4  PHE4       -0.0042
     32 CE1       138.1794  144.5493  165.4082 C.ar    4  PHE4       -0.0003
     33 CZ        137.2540  143.5254  164.8205 C.ar    4  PHE4       -0.0000
     34 CE2       137.3823  143.1393  163.3768 C.ar    4  PHE4       -0.0003
     35 CD2       138.4360  143.7771  162.5206 C.ar    4  PHE4       -0.0042
     36 CB        143.9993  140.9341  155.6021 C.3     2  PHE2        0.0555
     37 CG        145.2681  141.4188  154.9656 C.ar    2  PHE2       -0.0200
     38 CD1       146.0341  142.5495  155.5861 C.ar    2  PHE2       -0.0042
     39 CE1       147.3029  143.0342  154.9496 C.ar    2  PHE2       -0.0003
     40 CZ        147.8058  142.3884  153.6926 C.ar    2  PHE2       -0.0000
     41 CE2       147.0398  141.2578  153.0721 C.ar    2  PHE2       -0.0003
     42 CD2       145.7710  140.7730  153.7086 C.ar    2  PHE2       -0.0042
@<TRIPOS>BOND
     1    23    24    1
     2    24    21    1
     3    21    22    1
     4    21     1    1
     5     1     2    1
     6     2     3   am
     7     3     4    2
     8     3     5    1
     9     5    29    1
    10    29    30    1
    11    30    31   ar
    12    31    32   ar
    13    32    33   ar
    14    33    34   ar
    15    34    35   ar
    16     5     6    1
    17     6     7    1
    18     6     8   am
    19     8     9    2
    20     8    10    1
    21    10    25    1
    22    25    26    1
    23    25    27    1
    24    27    28    1
    25    10    11    1
    26    11    12   am
    27    12    13    2
    28    12    14    1
    29    14    36    1
    30    36    37    1
    31    37    38   ar
    32    38    39   ar
    33    39    40   ar
    34    40    41   ar
    35    41    42   ar
    36    14    15    1
    37    15    16    1
    38    15    17   am
    39    17    18    2
    40    17     1    1
    41    35    30   ar
    42    42    37   ar
    43     2    19    1
    44    11    20    1
