@<TRIPOS>MOLECULE
*****
 37 41 0 0 0
SMALL
GASTEIGER

@<TRIPOS>ATOM
      1 C         139.2693  144.3109  162.9823 C.ar    1  UNL1        0.0899
      2 C         138.5010  144.2596  164.2695 C.ar    1  UNL1        0.1063
      3 N         138.0048  142.9451  164.7949 N.ar    1  UNL1       -0.2291
      4 C         138.2770  141.6820  164.0330 C.ar    1  UNL1        0.1301
      5 C         139.0453  141.7333  162.7457 C.ar    1  UNL1        0.0503
      6 C         139.5414  143.0478  162.2204 C.ar    1  UNL1        0.0895
      7 N         140.2660  142.7886  160.9328 N.2     1  UNL1       -0.2490
      8 C         140.2177  141.3139  160.6625 C.2     1  UNL1        0.0634
      9 C         140.7633  140.4808  159.5408 C.3     1  UNL1        0.0721
     10 C         140.5544  138.9955  159.5396 C.2     1  UNL1       -0.0132
     11 C         139.7999  138.3433  160.6600 C.2     1  UNL1       -0.0037
     12 C         139.2543  139.1764  161.7817 C.2     1  UNL1        0.0010
     13 C         139.4633  140.6617  161.7829 C.2     1  UNL1        0.0180
     14 C         141.0999  138.1622  158.4178 C.ar    1  UNL1        0.0349
     15 C         140.1911  137.6954  157.3196 C.ar    1  UNL1        0.1030
     16 N         140.7366  136.8623  156.1979 N.ar    1  UNL1       -0.2125
     17 C         142.1910  136.4958  156.1745 C.ar    1  UNL1        0.2137
     18 N         142.7365  135.6626  155.0528 N.pl3   1  UNL1       -0.3274
     19 N         143.0998  136.9626  157.2727 N.ar    1  UNL1       -0.2125
     20 C         142.5543  137.7958  158.3944 C.ar    1  UNL1        0.1030
     21 H         142.1400  135.3563  154.3320 H       1  UNL1        0.1452
     22 H         143.6910  135.4221  155.0374 H       1  UNL1        0.1452
     23 N         141.0288  146.2223  163.0021 N.am    1  UNL1       -0.3252
     24 C         139.7654  145.6254  162.4569 C.2     1  UNL1        0.2457
     25 O         138.9980  146.3430  161.3862 O.2     1  UNL1       -0.2703
     26 H         141.3544  147.0850  162.6573 H       1  UNL1        0.1453
     27 H         141.5325  145.7513  163.7048 H       1  UNL1        0.1453
     28 N         137.7808  140.3675  164.5584 N.pl3   1  UNL1       -0.3127
     29 H         136.9381  139.9882  164.2191 H       1  UNL1        0.1484
     30 C         138.5688  139.6309  165.6009 C.3     1  UNL1        0.1663
     31 C         138.1714  138.2401  165.9978 C.3     1  UNL1        0.4135
     32 F         137.7741  136.8492  166.3947 F       1  UNL1       -0.1682
     33 F         138.9913  137.6844  164.8712 F       1  UNL1       -0.1682
     34 F         137.3516  138.7958  167.1243 F       1  UNL1       -0.1682
     35 C         139.7541  140.2854  166.2464 C.3     1  UNL1        0.0264
     36 C         141.2311  140.5430  166.2915 C.3     1  UNL1        0.0020
     37 C         140.3301  141.1612  167.3192 C.3     1  UNL1        0.0020
@<TRIPOS>BOND
     1    23    24   am
     2    24    25    2
     3    24     1    1
     4     1     2   ar
     5     2     3   ar
     6     3     4   ar
     7     4    28    1
     8    30    28    1
     9    30    35    1
    10    35    36    1
    11    36    37    1
    12    30    31    1
    13    31    32    1
    14    31    33    1
    15    31    34    1
    16     4     5   ar
    17     5     6   ar
    18     6     7    1
    19     7     8    2
    20     8     9    1
    21     9    10    1
    22    10    14    1
    23    14    15   ar
    24    15    16   ar
    25    16    17   ar
    26    17    18    1
    27    17    19   ar
    28    19    20   ar
    29    10    11    2
    30    11    12    1
    31    12    13    2
    32     6     1   ar
    33    13     8    1
    34    37    35    1
    35    13     5    1
    36    20    14   ar
    37    23    26    1
    38    23    27    1
    39    28    29    1
    40    18    21    1
    41    18    22    1
@<TRIPOS>MOLECULE
*****
 37 41 0 0 0
SMALL
GASTEIGER

@<TRIPOS>ATOM
      1 C         140.8793  143.5418  164.1988 C.ar    1  UNL1        0.0899
      2 C         140.5536  143.0941  165.5929 C.ar    1  UNL1        0.1063
      3 N         139.5951  141.9614  165.8121 N.ar    1  UNL1       -0.2291
      4 C         138.9622  141.2763  164.6373 C.ar    1  UNL1        0.1301
      5 C         139.2879  141.7240  163.2432 C.ar    1  UNL1        0.0503
      6 C         140.2464  142.8567  163.0240 C.ar    1  UNL1        0.0895
      7 N         140.3740  143.0764  161.5456 N.2     1  UNL1       -0.2490
      8 C         139.4943  142.0794  160.8512 C.2     1  UNL1        0.0634
      9 C         139.2177  141.8247  159.3991 C.3     1  UNL1        0.0721
     10 C         138.2699  140.7342  158.9962 C.2     1  UNL1       -0.0132
     11 C         137.5987  139.8983  160.0454 C.2     1  UNL1       -0.0037
     12 C         137.8752  140.1530  161.4975 C.2     1  UNL1        0.0010
     13 C         138.8230  141.2436  161.9004 C.2     1  UNL1        0.0180
     14 C         137.9934  140.4794  157.5441 C.ar    1  UNL1        0.0349
     15 C         136.7260  140.9860  156.9219 C.ar    1  UNL1        0.1030
     16 N         136.4493  140.7313  155.4698 N.ar    1  UNL1       -0.2125
     17 C         137.4401  139.9700  154.6398 C.ar    1  UNL1        0.2137
     18 N         137.1635  139.7153  153.1878 N.pl3   1  UNL1       -0.3274
     19 N         138.7075  139.4634  155.2620 N.ar    1  UNL1       -0.2125
     20 C         138.9841  139.7182  156.7142 C.ar    1  UNL1        0.1030
     21 H         136.3317  140.0478  152.7794 H       1  UNL1        0.1452
     22 H         137.8138  139.2156  152.6431 H       1  UNL1        0.1452
     23 N         141.4001  145.8908  163.2187 N.am    1  UNL1       -0.3252
     24 C         141.8379  144.6745  163.9796 C.2     1  UNL1        0.2457
     25 O         143.2342  144.5909  164.5212 O.2     1  UNL1       -0.2703
     26 H         142.0293  146.6342  163.0748 H       1  UNL1        0.1453
     27 H         140.4837  145.9457  162.8633 H       1  UNL1        0.1453
     28 N         138.0036  140.1435  164.8566 N.pl3   1  UNL1       -0.3127
     29 H         137.0351  140.2930  164.7625 H       1  UNL1        0.1484
     30 C         138.5208  138.7830  165.2194 C.3     1  UNL1        0.1663
     31 C         137.9000  138.0224  166.3534 C.3     1  UNL1        0.4135
     32 F         137.2791  137.2618  167.4874 F       1  UNL1       -0.1682
     33 F         137.6705  139.3085  167.0904 F       1  UNL1       -0.1682
     34 F         138.1294  136.7363  165.6163 F       1  UNL1       -0.1682
     35 C         139.6589  138.1832  164.4481 C.3     1  UNL1        0.0264
     36 C         140.2061  137.6115  163.1738 C.3     1  UNL1        0.0020
     37 C         141.0829  137.7159  164.3864 C.3     1  UNL1        0.0020
@<TRIPOS>BOND
     1    23    24   am
     2    24    25    2
     3    24     1    1
     4     1     2   ar
     5     2     3   ar
     6     3     4   ar
     7     4    28    1
     8    30    28    1
     9    30    35    1
    10    35    36    1
    11    36    37    1
    12    30    31    1
    13    31    32    1
    14    31    33    1
    15    31    34    1
    16     4     5   ar
    17     5     6   ar
    18     6     7    1
    19     7     8    2
    20     8     9    1
    21     9    10    1
    22    10    14    1
    23    14    15   ar
    24    15    16   ar
    25    16    17   ar
    26    17    18    1
    27    17    19   ar
    28    19    20   ar
    29    10    11    2
    30    11    12    1
    31    12    13    2
    32     6     1   ar
    33    13     8    1
    34    37    35    1
    35    13     5    1
    36    20    14   ar
    37    23    26    1
    38    23    27    1
    39    28    29    1
    40    18    21    1
    41    18    22    1
@<TRIPOS>MOLECULE
*****
 37 41 0 0 0
SMALL
GASTEIGER

@<TRIPOS>ATOM
      1 C         142.5170  140.0593  166.5670 C.ar    1  UNL1        0.0899
      2 C         141.8790  141.2179  167.2744 C.ar    1  UNL1        0.1063
      3 N         141.2712  142.3376  166.4827 N.ar    1  UNL1       -0.2291
      4 C         141.3014  142.2986  164.9835 C.ar    1  UNL1        0.1301
      5 C         141.9394  141.1400  164.2760 C.ar    1  UNL1        0.0503
      6 C         142.5472  140.0203  165.0678 C.ar    1  UNL1        0.0895
      7 N         143.1018  139.0167  164.1008 N.2     1  UNL1       -0.2490
      8 C         142.8369  139.5161  162.7114 C.2     1  UNL1        0.0634
      9 C         143.1570  138.9455  161.3616 C.3     1  UNL1        0.0721
     10 C         142.7586  139.6871  160.1202 C.2     1  UNL1       -0.0132
     11 C         142.0402  140.9994  160.2285 C.2     1  UNL1       -0.0037
     12 C         141.7201  141.5701  161.5783 C.2     1  UNL1        0.0010
     13 C         142.1184  140.8284  162.8197 C.2     1  UNL1        0.0180
     14 C         143.0787  139.1165  158.7704 C.ar    1  UNL1        0.0349
     15 C         142.6888  137.7061  158.4407 C.ar    1  UNL1        0.1030
     16 N         143.0089  137.1355  157.0909 N.ar    1  UNL1       -0.2125
     17 C         143.7189  137.9753  156.0708 C.ar    1  UNL1        0.2137
     18 N         144.0390  137.4046  154.7210 N.pl3   1  UNL1       -0.3274
     19 N         144.1088  139.3857  156.4004 N.ar    1  UNL1       -0.2125
     20 C         143.7887  139.9563  157.7503 C.ar    1  UNL1        0.1030
     21 H         143.7830  136.4789  154.5046 H       1  UNL1        0.1452
     22 H         144.5049  137.9558  154.0514 H       1  UNL1        0.1452
     23 N         144.0033  137.9314  166.6794 N.am    1  UNL1       -0.3252
     24 C         143.1248  138.9396  167.3588 C.2     1  UNL1        0.2457
     25 O         142.8539  138.8281  168.8300 O.2     1  UNL1       -0.2703
     26 H         144.4022  137.1966  167.1991 H       1  UNL1        0.1453
     27 H         144.1811  138.0046  165.7139 H       1  UNL1        0.1453
     28 N         140.6936  143.4184  164.1917 N.pl3   1  UNL1       -0.3127
     29 H         141.2715  144.1033  163.7841 H       1  UNL1        0.1484
     30 C         139.2052  143.4945  164.0211 C.3     1  UNL1        0.1663
     31 C         138.3848  144.3313  164.9573 C.3     1  UNL1        0.4135
     32 F         137.5643  145.1681  165.8935 F       1  UNL1       -0.1682
     33 F         137.2607  143.3433  164.8553 F       1  UNL1       -0.1682
     34 F         139.5088  145.3193  165.0593 F       1  UNL1       -0.1682
     35 C         138.5374  142.7338  162.9142 C.3     1  UNL1        0.0264
     36 C         137.8869  141.4807  162.4075 C.3     1  UNL1        0.0020
     37 C         138.0313  142.6691  161.5037 C.3     1  UNL1        0.0020
@<TRIPOS>BOND
     1    23    24   am
     2    24    25    2
     3    24     1    1
     4     1     2   ar
     5     2     3   ar
     6     3     4   ar
     7     4    28    1
     8    30    28    1
     9    30    35    1
    10    35    36    1
    11    36    37    1
    12    30    31    1
    13    31    32    1
    14    31    33    1
    15    31    34    1
    16     4     5   ar
    17     5     6   ar
    18     6     7    1
    19     7     8    2
    20     8     9    1
    21     9    10    1
    22    10    14    1
    23    14    15   ar
    24    15    16   ar
    25    16    17   ar
    26    17    18    1
    27    17    19   ar
    28    19    20   ar
    29    10    11    2
    30    11    12    1
    31    12    13    2
    32     6     1   ar
    33    13     8    1
    34    37    35    1
    35    13     5    1
    36    20    14   ar
    37    23    26    1
    38    23    27    1
    39    28    29    1
    40    18    21    1
    41    18    22    1
@<TRIPOS>MOLECULE
*****
 37 41 0 0 0
SMALL
GASTEIGER

@<TRIPOS>ATOM
      1 C         139.3960  139.4422  166.0630 C.ar    1  UNL1        0.0899
      2 C         139.6206  140.4899  167.1126 C.ar    1  UNL1        0.1063
      3 N         140.5968  141.6017  166.8657 N.ar    1  UNL1       -0.2291
      4 C         141.3484  141.6657  165.5692 C.ar    1  UNL1        0.1301
      5 C         141.1239  140.6180  164.5196 C.ar    1  UNL1        0.0503
      6 C         140.1477  139.5062  164.7665 C.ar    1  UNL1        0.0895
      7 N         140.1354  138.6225  163.5545 N.2     1  UNL1       -0.2490
      8 C         141.1041  139.1881  162.5586 C.2     1  UNL1        0.0634
      9 C         141.5087  138.7394  161.1857 C.3     1  UNL1        0.0721
     10 C         142.5243  139.5241  160.4092 C.2     1  UNL1       -0.0132
     11 C         143.1352  140.7574  161.0057 C.2     1  UNL1       -0.0037
     12 C         142.7305  141.2060  162.3786 C.2     1  UNL1        0.0010
     13 C         141.7149  140.4214  163.1550 C.2     1  UNL1        0.0180
     14 C         142.9290  139.0754  159.0363 C.ar    1  UNL1        0.0349
     15 C         142.6486  137.6699  158.5935 C.ar    1  UNL1        0.1030
     16 N         143.0533  137.2213  157.2206 N.ar    1  UNL1       -0.2125
     17 C         143.7384  138.1781  156.2904 C.ar    1  UNL1        0.2137
     18 N         144.1431  137.7294  154.9175 N.pl3   1  UNL1       -0.3274
     19 N         144.0188  139.5836  156.7332 N.ar    1  UNL1       -0.2125
     20 C         143.6141  140.0322  158.1061 C.ar    1  UNL1        0.1030
     21 H         143.9590  136.8070  154.6269 H       1  UNL1        0.1452
     22 H         144.5927  138.3574  154.3070 H       1  UNL1        0.1452
     23 N         138.4212  137.1205  165.4235 N.am    1  UNL1       -0.3252
     24 C         138.4198  138.3304  166.3099 C.2     1  UNL1        0.2457
     25 O         137.4422  138.4286  167.4434 O.2     1  UNL1       -0.2703
     26 H         137.7805  136.3908  165.5855 H       1  UNL1        0.1453
     27 H         139.0628  137.0560  164.6796 H       1  UNL1        0.1453
     28 N         142.3246  142.7776  165.3223 N.pl3   1  UNL1       -0.3127
     29 H         143.2313  142.7303  165.7032 H       1  UNL1        0.1484
     30 C         141.9194  143.9615  164.4952 C.3     1  UNL1        0.1663
     31 C         142.9668  144.8178  163.8474 C.3     1  UNL1        0.4135
     32 F         144.0143  145.6740  163.1996 F       1  UNL1       -0.1682
     33 F         141.9606  145.9164  163.6727 F       1  UNL1       -0.1682
     34 F         143.9730  143.7191  164.0222 F       1  UNL1       -0.1682
     35 C         140.4667  144.2891  164.3159 C.3     1  UNL1        0.0264
     36 C         139.2475  144.3537  163.4444 C.3     1  UNL1        0.0020
     37 C         139.1696  144.7920  164.8769 C.3     1  UNL1        0.0020
@<TRIPOS>BOND
     1    23    24   am
     2    24    25    2
     3    24     1    1
     4     1     2   ar
     5     2     3   ar
     6     3     4   ar
     7     4    28    1
     8    30    28    1
     9    30    35    1
    10    35    36    1
    11    36    37    1
    12    30    31    1
    13    31    32    1
    14    31    33    1
    15    31    34    1
    16     4     5   ar
    17     5     6   ar
    18     6     7    1
    19     7     8    2
    20     8     9    1
    21     9    10    1
    22    10    14    1
    23    14    15   ar
    24    15    16   ar
    25    16    17   ar
    26    17    18    1
    27    17    19   ar
    28    19    20   ar
    29    10    11    2
    30    11    12    1
    31    12    13    2
    32     6     1   ar
    33    13     8    1
    34    37    35    1
    35    13     5    1
    36    20    14   ar
    37    23    26    1
    38    23    27    1
    39    28    29    1
    40    18    21    1
    41    18    22    1
@<TRIPOS>MOLECULE
*****
 37 41 0 0 0
SMALL
GASTEIGER

@<TRIPOS>ATOM
      1 C         143.0761  142.2619  165.2242 C.ar    1  UNL1        0.0899
      2 C         142.7172  141.8370  166.6173 C.ar    1  UNL1        0.1063
      3 N         141.4010  141.1678  166.8815 N.ar    1  UNL1       -0.2291
      4 C         140.4438  140.9235  165.7527 C.ar    1  UNL1        0.1301
      5 C         140.8028  141.3485  164.3597 C.ar    1  UNL1        0.0503
      6 C         142.1189  142.0177  164.0955 C.ar    1  UNL1        0.0895
      7 N         142.1971  142.3237  162.6291 N.2     1  UNL1       -0.2490
      8 C         140.9293  141.8436  161.9871 C.2     1  UNL1        0.0634
      9 C         140.4483  141.8774  160.5667 C.3     1  UNL1        0.0721
     10 C         139.1054  141.3085  160.2160 C.2     1  UNL1       -0.0132
     11 C         138.2436  140.7058  161.2856 C.2     1  UNL1       -0.0037
     12 C         138.7247  140.6720  162.7059 C.2     1  UNL1        0.0010
     13 C         140.0675  141.2409  163.0567 C.2     1  UNL1        0.0180
     14 C         138.6243  141.3423  158.7956 C.ar    1  UNL1        0.0349
     15 C         138.1523  142.6328  158.1942 C.ar    1  UNL1        0.1030
     16 N         137.6712  142.6666  156.7738 N.ar    1  UNL1       -0.2125
     17 C         137.6621  141.4099  155.9549 C.ar    1  UNL1        0.2137
     18 N         137.1810  141.4438  154.5346 N.pl3   1  UNL1       -0.3274
     19 N         138.1341  140.1194  156.5563 N.ar    1  UNL1       -0.2125
     20 C         138.6153  140.0856  157.9767 C.ar    1  UNL1        0.1030
     21 H         136.8712  142.2908  154.1398 H       1  UNL1        0.1452
     22 H         137.1750  140.6189  153.9971 H       1  UNL1        0.1452
     23 N         145.2044  142.5414  163.7607 N.am    1  UNL1       -0.3252
     24 C         144.3923  142.9312  164.9600 C.2     1  UNL1        0.2457
     25 O         144.8964  143.9902  165.8952 O.2     1  UNL1       -0.2703
     26 H         146.0683  142.9807  163.5872 H       1  UNL1        0.1453
     27 H         144.8736  141.8464  163.1469 H       1  UNL1        0.1453
     28 N         139.1276  140.2543  166.0170 N.pl3   1  UNL1       -0.3127
     29 H         138.3476  140.7912  166.2865 H       1  UNL1        0.1484
     30 C         138.9998  138.7669  165.8708 C.3     1  UNL1        0.1663
     31 C         137.9544  138.0238  166.6485 C.3     1  UNL1        0.4135
     32 F         136.9089  137.2807  167.4262 F       1  UNL1       -0.1682
     33 F         137.7856  139.2082  167.5533 F       1  UNL1       -0.1682
     34 F         138.1232  136.8394  165.7437 F       1  UNL1       -0.1682
     35 C         139.9176  138.0226  164.9469 C.3     1  UNL1        0.0264
     36 C         140.2044  137.4332  163.5976 C.3     1  UNL1        0.0020
     37 C         141.2204  137.3229  164.6957 C.3     1  UNL1        0.0020
@<TRIPOS>BOND
     1    23    24   am
     2    24    25    2
     3    24     1    1
     4     1     2   ar
     5     2     3   ar
     6     3     4   ar
     7     4    28    1
     8    30    28    1
     9    30    35    1
    10    35    36    1
    11    36    37    1
    12    30    31    1
    13    31    32    1
    14    31    33    1
    15    31    34    1
    16     4     5   ar
    17     5     6   ar
    18     6     7    1
    19     7     8    2
    20     8     9    1
    21     9    10    1
    22    10    14    1
    23    14    15   ar
    24    15    16   ar
    25    16    17   ar
    26    17    18    1
    27    17    19   ar
    28    19    20   ar
    29    10    11    2
    30    11    12    1
    31    12    13    2
    32     6     1   ar
    33    13     8    1
    34    37    35    1
    35    13     5    1
    36    20    14   ar
    37    23    26    1
    38    23    27    1
    39    28    29    1
    40    18    21    1
    41    18    22    1
@<TRIPOS>MOLECULE
*****
 37 41 0 0 0
SMALL
GASTEIGER

@<TRIPOS>ATOM
      1 C         142.5997  139.5726  159.5710 C.ar    1  UNL1        0.0899
      2 C         142.3208  140.5968  158.5112 C.ar    1  UNL1        0.1063
      3 N         142.0099  142.0120  158.8992 N.ar    1  UNL1       -0.2291
      4 C         141.9779  142.4030  160.3470 C.ar    1  UNL1        0.1301
      5 C         142.2568  141.3788  161.4068 C.ar    1  UNL1        0.0503
      6 C         142.5678  139.9636  161.0188 C.ar    1  UNL1        0.0895
      7 N         142.7994  139.1787  162.2758 N.2     1  UNL1       -0.2490
      8 C         142.6317  140.1087  163.4407 C.2     1  UNL1        0.0634
      9 C         142.7410  139.8931  164.9211 C.3     1  UNL1        0.0721
     10 C         142.5150  141.0373  165.8643 C.2     1  UNL1       -0.0132
     11 C         142.1796  142.3971  165.3272 C.2     1  UNL1       -0.0037
     12 C         142.0703  142.6127  163.8468 C.2     1  UNL1        0.0010
     13 C         142.2964  141.4685  162.9036 C.2     1  UNL1        0.0180
     14 C         142.6243  140.8217  167.3447 C.ar    1  UNL1        0.0349
     15 C         142.7683  141.9973  168.2652 C.ar    1  UNL1        0.1030
     16 N         142.8776  141.7817  169.7456 N.ar    1  UNL1       -0.2125
     17 C         142.8429  140.3906  170.3056 C.ar    1  UNL1        0.2137
     18 N         142.9522  140.1750  171.7859 N.pl3   1  UNL1       -0.3274
     19 N         142.6989  139.2150  169.3851 N.ar    1  UNL1       -0.2125
     20 C         142.5896  139.4306  167.9046 C.ar    1  UNL1        0.1030
     21 H         143.0468  140.9466  172.3901 H       1  UNL1        0.1452
     22 H         142.9295  139.2620  172.1534 H       1  UNL1        0.1452
     23 N         143.0306  137.0993  160.2393 N.am    1  UNL1       -0.3252
     24 C         142.9106  138.1574  159.1830 C.2     1  UNL1        0.2457
     25 O         143.1016  137.8004  157.7386 O.2     1  UNL1       -0.2703
     26 H         143.2346  136.1704  159.9846 H       1  UNL1        0.1453
     27 H         142.9052  137.3336  161.1873 H       1  UNL1        0.1453
     28 N         141.6670  143.8183  160.7349 N.pl3   1  UNL1       -0.3127
     29 H         142.3789  144.4982  160.7284 H       1  UNL1        0.1484
     30 C         140.2712  144.1975  161.1328 C.3     1  UNL1        0.1663
     31 C         139.9550  145.6175  161.4978 C.3     1  UNL1        0.4135
     32 F         139.6387  147.0376  161.8628 F       1  UNL1       -0.1682
     33 F         139.8811  145.2291  162.9448 F       1  UNL1       -0.1682
     34 F         140.0289  146.0059  160.0508 F       1  UNL1       -0.1682
     35 C         139.1918  143.1564  161.1655 C.3     1  UNL1        0.0264
     36 C         138.0965  142.4436  161.9019 C.3     1  UNL1        0.0020
     37 C         138.4175  142.0662  160.4861 C.3     1  UNL1        0.0020
@<TRIPOS>BOND
     1    23    24   am
     2    24    25    2
     3    24     1    1
     4     1     2   ar
     5     2     3   ar
     6     3     4   ar
     7     4    28    1
     8    30    28    1
     9    30    35    1
    10    35    36    1
    11    36    37    1
    12    30    31    1
    13    31    32    1
    14    31    33    1
    15    31    34    1
    16     4     5   ar
    17     5     6   ar
    18     6     7    1
    19     7     8    2
    20     8     9    1
    21     9    10    1
    22    10    14    1
    23    14    15   ar
    24    15    16   ar
    25    16    17   ar
    26    17    18    1
    27    17    19   ar
    28    19    20   ar
    29    10    11    2
    30    11    12    1
    31    12    13    2
    32     6     1   ar
    33    13     8    1
    34    37    35    1
    35    13     5    1
    36    20    14   ar
    37    23    26    1
    38    23    27    1
    39    28    29    1
    40    18    21    1
    41    18    22    1
@<TRIPOS>MOLECULE
*****
 37 41 0 0 0
SMALL
GASTEIGER

@<TRIPOS>ATOM
      1 C         139.7685  143.8872  163.3377 C.ar    1  UNL1        0.0899
      2 C         140.0472  144.0148  164.8060 C.ar    1  UNL1        0.1063
      3 N         141.0028  143.0703  165.4728 N.ar    1  UNL1       -0.2291
      4 C         141.6798  141.9983  164.6713 C.ar    1  UNL1        0.1301
      5 C         141.4012  141.8707  163.2030 C.ar    1  UNL1        0.0503
      6 C         140.4455  142.8152  162.5362 C.ar    1  UNL1        0.0895
      7 N         140.3690  142.4483  161.0837 N.2     1  UNL1       -0.2490
      8 C         141.2773  141.2771  160.8529 C.2     1  UNL1        0.0634
      9 C         141.6059  140.4896  159.6193 C.3     1  UNL1        0.0721
     10 C         142.5725  139.3451  159.6955 C.2     1  UNL1       -0.0132
     11 C         143.2104  138.9881  161.0053 C.2     1  UNL1       -0.0037
     12 C         142.8818  139.7756  162.2389 C.2     1  UNL1        0.0010
     13 C         141.9153  140.9201  162.1627 C.2     1  UNL1        0.0180
     14 C         142.9011  138.5575  158.4619 C.ar    1  UNL1        0.0349
     15 C         143.5044  139.2440  157.2724 C.ar    1  UNL1        0.1030
     16 N         143.8331  138.4565  156.0388 N.ar    1  UNL1       -0.2125
     17 C         143.5585  136.9825  155.9947 C.ar    1  UNL1        0.2137
     18 N         143.8871  136.1950  154.7611 N.pl3   1  UNL1       -0.3274
     19 N         142.9552  136.2960  157.1841 N.ar    1  UNL1       -0.2125
     20 C         142.6265  137.0836  158.4178 C.ar    1  UNL1        0.1030
     21 H         144.2831  136.6455  153.9804 H       1  UNL1        0.1452
     22 H         143.7069  135.2276  154.7321 H       1  UNL1        0.1452
     23 N         137.3361  144.5796  162.7432 N.am    1  UNL1       -0.3252
     24 C         138.8129  144.8317  162.6708 C.2     1  UNL1        0.2457
     25 O         139.3341  146.0283  161.9316 O.2     1  UNL1       -0.2703
     26 H         136.7088  145.1995  162.3056 H       1  UNL1        0.1453
     27 H         136.9940  143.7942  163.2284 H       1  UNL1        0.1453
     28 N         142.6355  141.0538  165.3383 N.pl3   1  UNL1       -0.3127
     29 H         143.5948  141.2715  165.3792 H       1  UNL1        0.1484
     30 C         142.1296  139.7776  165.9428 C.3     1  UNL1        0.1663
     31 C         143.0994  138.7394  166.4239 C.3     1  UNL1        0.4135
     32 F         144.0692  137.7011  166.9050 F       1  UNL1       -0.1682
     33 F         143.1326  138.1346  165.0516 F       1  UNL1       -0.1682
     34 F         143.0661  139.3442  167.7962 F       1  UNL1       -0.1682
     35 C         140.6537  139.5398  166.0662 C.3     1  UNL1        0.0264
     36 C         139.3741  138.9957  165.5036 C.3     1  UNL1        0.0020
     37 C         139.3771  139.6719  166.8425 C.3     1  UNL1        0.0020
@<TRIPOS>BOND
     1    23    24   am
     2    24    25    2
     3    24     1    1
     4     1     2   ar
     5     2     3   ar
     6     3     4   ar
     7     4    28    1
     8    30    28    1
     9    30    35    1
    10    35    36    1
    11    36    37    1
    12    30    31    1
    13    31    32    1
    14    31    33    1
    15    31    34    1
    16     4     5   ar
    17     5     6   ar
    18     6     7    1
    19     7     8    2
    20     8     9    1
    21     9    10    1
    22    10    14    1
    23    14    15   ar
    24    15    16   ar
    25    16    17   ar
    26    17    18    1
    27    17    19   ar
    28    19    20   ar
    29    10    11    2
    30    11    12    1
    31    12    13    2
    32     6     1   ar
    33    13     8    1
    34    37    35    1
    35    13     5    1
    36    20    14   ar
    37    23    26    1
    38    23    27    1
    39    28    29    1
    40    18    21    1
    41    18    22    1
@<TRIPOS>MOLECULE
*****
 37 41 0 0 0
SMALL
GASTEIGER

@<TRIPOS>ATOM
      1 C         142.8582  142.8711  162.7704 C.ar    1  UNL1        0.0899
      2 C         142.1635  143.0894  164.0818 C.ar    1  UNL1        0.1063
      3 N         140.9489  142.2813  164.4307 N.ar    1  UNL1       -0.2291
      4 C         140.4290  141.2549  163.4683 C.ar    1  UNL1        0.1301
      5 C         141.1237  141.0366  162.1569 C.ar    1  UNL1        0.0503
      6 C         142.3383  141.8447  161.8080 C.ar    1  UNL1        0.0895
      7 N         142.8095  141.4110  160.4516 N.2     1  UNL1       -0.2490
      8 C         141.8862  140.3348  159.9623 C.2     1  UNL1        0.0634
      9 C         141.8597  139.5357  158.6932 C.3     1  UNL1        0.0721
     10 C         140.7912  138.5052  158.4780 C.2     1  UNL1       -0.0132
     11 C         139.7492  138.2738  159.5320 C.2     1  UNL1       -0.0037
     12 C         139.7758  139.0729  160.8011 C.2     1  UNL1        0.0010
     13 C         140.8443  140.1034  161.0162 C.2     1  UNL1        0.0180
     14 C         140.7645  137.7060  157.2089 C.ar    1  UNL1        0.0349
     15 C         139.5268  137.6849  156.3617 C.ar    1  UNL1        0.1030
     16 N         139.5002  136.8858  155.0926 N.ar    1  UNL1       -0.2125
     17 C         140.7112  136.1077  154.6706 C.ar    1  UNL1        0.2137
     18 N         140.6846  135.3086  153.4015 N.pl3   1  UNL1       -0.3274
     19 N         141.9489  136.1288  155.5178 N.ar    1  UNL1       -0.2125
     20 C         141.9756  136.9280  156.7869 C.ar    1  UNL1        0.1030
     21 H         139.8722  135.2948  152.8455 H       1  UNL1        0.1452
     22 H         141.4794  134.7980  153.1246 H       1  UNL1        0.1452
     23 N         145.2226  143.0343  161.7062 N.am    1  UNL1       -0.3252
     24 C         144.0727  143.6792  162.4215 C.2     1  UNL1        0.2457
     25 O         144.1374  145.1324  162.7878 O.2     1  UNL1       -0.2703
     26 H         146.0197  143.5647  161.4771 H       1  UNL1        0.1453
     27 H         145.1801  142.0805  161.4657 H       1  UNL1        0.1453
     28 N         139.2144  140.4468  163.8173 N.pl3   1  UNL1       -0.3127
     29 H         138.3311  140.7119  163.4728 H       1  UNL1        0.1484
     30 C         139.3457  139.2347  164.6913 C.3     1  UNL1        0.1663
     31 C         138.3405  138.9787  165.7747 C.3     1  UNL1        0.4135
     32 F         137.3353  138.7228  166.8582 F       1  UNL1       -0.1682
     33 F         138.4369  137.5044  165.5158 F       1  UNL1       -0.1682
     34 F         138.2442  140.4531  166.0336 F       1  UNL1       -0.1682
     35 C         140.4824  138.2787  164.4816 C.3     1  UNL1        0.0264
     36 C         141.8468  137.7806  164.8562 C.3     1  UNL1        0.0020
     37 C         141.0868  137.1208  163.7440 C.3     1  UNL1        0.0020
@<TRIPOS>BOND
     1    23    24   am
     2    24    25    2
     3    24     1    1
     4     1     2   ar
     5     2     3   ar
     6     3     4   ar
     7     4    28    1
     8    30    28    1
     9    30    35    1
    10    35    36    1
    11    36    37    1
    12    30    31    1
    13    31    32    1
    14    31    33    1
    15    31    34    1
    16     4     5   ar
    17     5     6   ar
    18     6     7    1
    19     7     8    2
    20     8     9    1
    21     9    10    1
    22    10    14    1
    23    14    15   ar
    24    15    16   ar
    25    16    17   ar
    26    17    18    1
    27    17    19   ar
    28    19    20   ar
    29    10    11    2
    30    11    12    1
    31    12    13    2
    32     6     1   ar
    33    13     8    1
    34    37    35    1
    35    13     5    1
    36    20    14   ar
    37    23    26    1
    38    23    27    1
    39    28    29    1
    40    18    21    1
    41    18    22    1
@<TRIPOS>MOLECULE
*****
 37 41 0 0 0
SMALL
GASTEIGER

@<TRIPOS>ATOM
      1 C         142.6758  143.2772  164.1080 C.ar    1  UNL1        0.0899
      2 C         142.3413  143.0829  165.5572 C.ar    1  UNL1        0.1063
      3 N         141.6563  141.8265  166.0069 N.ar    1  UNL1       -0.2291
      4 C         141.3058  140.7644  165.0074 C.ar    1  UNL1        0.1301
      5 C         141.6402  140.9587  163.5581 C.ar    1  UNL1        0.0503
      6 C         142.3252  142.2151  163.1084 C.ar    1  UNL1        0.0895
      7 N         142.5280  142.1268  161.6248 N.2     1  UNL1       -0.2490
      8 C         141.9683  140.8159  161.1576 C.2     1  UNL1        0.0634
      9 C         141.8875  140.1863  159.7986 C.3     1  UNL1        0.0721
     10 C         141.2579  138.8348  159.6344 C.2     1  UNL1       -0.0132
     11 C         140.7092  138.1129  160.8293 C.2     1  UNL1       -0.0037
     12 C         140.7901  138.7424  162.1883 C.2     1  UNL1        0.0010
     13 C         141.4196  140.0940  162.3525 C.2     1  UNL1        0.0180
     14 C         141.1770  138.2052  158.2753 C.ar    1  UNL1        0.0349
     15 C         142.4238  137.7158  157.6000 C.ar    1  UNL1        0.1030
     16 N         142.3430  137.0862  156.2410 N.ar    1  UNL1       -0.2125
     17 C         141.0153  136.9459  155.5572 C.ar    1  UNL1        0.2137
     18 N         140.9344  136.3163  154.1981 N.pl3   1  UNL1       -0.3274
     19 N         139.7684  137.4352  156.2324 N.ar    1  UNL1       -0.2125
     20 C         139.8493  138.0649  157.5915 C.ar    1  UNL1        0.1030
     21 H         141.7528  135.9951  153.7550 H       1  UNL1        0.1452
     22 H         140.0630  136.2242  153.7493 H       1  UNL1        0.1452
     23 N         143.2800  144.9590  162.2222 N.am    1  UNL1       -0.3252
     24 C         143.3608  144.5336  163.6583 C.2     1  UNL1        0.2457
     25 O         144.1266  145.3646  164.6447 O.2     1  UNL1       -0.2703
     26 H         143.7296  145.7836  161.9271 H       1  UNL1        0.1453
     27 H         142.7773  144.4136  161.5748 H       1  UNL1        0.1453
     28 N         140.6207  139.5080  165.4572 N.pl3   1  UNL1       -0.3127
     29 H         141.1446  138.7800  165.8632 H       1  UNL1        0.1484
     30 C         139.1375  139.3608  165.2882 C.3     1  UNL1        0.1663
     31 C         138.4325  138.1662  165.8588 C.3     1  UNL1        0.4135
     32 F         137.7275  136.9714  166.4294 F       1  UNL1       -0.1682
     33 F         137.4743  139.0727  166.5730 F       1  UNL1       -0.1682
     34 F         139.3907  137.2596  165.1446 F       1  UNL1       -0.1682
     35 C         138.3594  140.4084  164.5486 C.3     1  UNL1        0.0264
     36 C         137.5698  140.8328  163.3459 C.3     1  UNL1        0.0020
     37 C         137.8013  141.7985  164.4702 C.3     1  UNL1        0.0020
@<TRIPOS>BOND
     1    23    24   am
     2    24    25    2
     3    24     1    1
     4     1     2   ar
     5     2     3   ar
     6     3     4   ar
     7     4    28    1
     8    30    28    1
     9    30    35    1
    10    35    36    1
    11    36    37    1
    12    30    31    1
    13    31    32    1
    14    31    33    1
    15    31    34    1
    16     4     5   ar
    17     5     6   ar
    18     6     7    1
    19     7     8    2
    20     8     9    1
    21     9    10    1
    22    10    14    1
    23    14    15   ar
    24    15    16   ar
    25    16    17   ar
    26    17    18    1
    27    17    19   ar
    28    19    20   ar
    29    10    11    2
    30    11    12    1
    31    12    13    2
    32     6     1   ar
    33    13     8    1
    34    37    35    1
    35    13     5    1
    36    20    14   ar
    37    23    26    1
    38    23    27    1
    39    28    29    1
    40    18    21    1
    41    18    22    1
