@<TRIPOS>MOLECULE
*****
 29 31 0 0 0
SMALL
GASTEIGER

@<TRIPOS>ATOM
      1 C         143.0640  143.2880  164.6990 C.ar    1  UNL1        0.1387
      2 C         143.9978  143.1847  165.8682 C.ar    1  UNL1        0.0370
      3 C         143.6598  142.2864  167.0210 C.ar    1  UNL1        0.0059
      4 C         142.3879  141.4915  167.0045 C.ar    1  UNL1        0.0317
      5 C         142.0498  140.5932  168.1573 C.ar    1  UNL1        0.1292
      6 N         140.7779  139.7983  168.1408 N.ar    1  UNL1       -0.2206
      7 C         139.8439  139.9017  166.9715 C.ar    1  UNL1        0.1505
      8 C         140.1820  140.8000  165.8187 C.ar    1  UNL1        0.0277
      9 C         141.4540  141.5949  165.8353 C.ar    1  UNL1        0.0078
     10 C         141.7920  142.4931  164.6825 C.ar    1  UNL1        0.0371
     11 C         139.2481  140.9033  164.6495 C.ar    1  UNL1        0.0021
     12 C         138.2478  142.0192  164.5849 C.ar    1  UNL1        0.0001
     13 C         137.3139  142.1225  163.4156 C.ar    1  UNL1        0.0000
     14 C         137.3804  141.1100  162.3109 C.ar    1  UNL1        0.0000
     15 C         138.3807  139.9941  162.3755 C.ar    1  UNL1        0.0000
     16 C         139.3146  139.8908  163.5447 C.ar    1  UNL1        0.0001
     17 C         144.3677  143.7260  162.4949 C.3     1  UNL1        0.2525
     18 O         143.4020  144.1863  163.5462 O.3     1  UNL1       -0.4714
     19 N         142.9837  140.4899  169.3265 N.pl3   1  UNL1       -0.3160
     20 H         143.9341  140.2790  169.1802 H       1  UNL1        0.1483
     21 C         142.4695  140.7078  170.7186 C.3     1  UNL1        0.1204
     22 C         141.9393  142.0523  171.1204 C.3     1  UNL1        0.1591
     23 O         140.6411  142.1548  171.8648 O.3     1  UNL1       -0.3802
     24 H         140.2775  141.2664  172.0045 H       1  UNL1        0.2105
     25 C         142.7074  143.2943  170.7778 C.3     1  UNL1        0.1680
     26 O         144.1684  143.2061  170.4496 O.3     1  UNL1       -0.3795
     27 H         144.6600  142.9231  171.2365 H       1  UNL1        0.2105
     28 C         138.5720  139.1068  166.9550 C.1     1  UNL1        0.1198
     29 N         137.3000  138.3119  166.9386 N.1     1  UNL1       -0.1893
@<TRIPOS>BOND
     1    17    18    1
     2    18     1    1
     3     1     2   ar
     4     2     3   ar
     5     3     4   ar
     6     4     5   ar
     7     5    19    1
     8    19    21    1
     9    21    22    1
    10    22    23    1
    11    22    25    1
    12    25    26    1
    13     5     6   ar
    14     6     7   ar
    15     7    28    1
    16    28    29    3
    17     7     8   ar
    18     8    11    1
    19    11    12   ar
    20    12    13   ar
    21    13    14   ar
    22    14    15   ar
    23    15    16   ar
    24     8     9   ar
    25     9    10   ar
    26    10     1   ar
    27     9     4   ar
    28    16    11   ar
    29    19    20    1
    30    23    24    1
    31    26    27    1
@<TRIPOS>MOLECULE
*****
 29 31 0 0 0
SMALL
GASTEIGER

@<TRIPOS>ATOM
      1 C         139.0895  138.5075  164.8580 C.ar    1  UNL1        0.1387
      2 C         138.3701  138.5991  166.1710 C.ar    1  UNL1        0.0370
      3 C         138.8566  139.5453  167.2284 C.ar    1  UNL1        0.0059
      4 C         140.0626  140.3998  166.9728 C.ar    1  UNL1        0.0317
      5 C         140.5491  141.3460  168.0301 C.ar    1  UNL1        0.1292
      6 N         141.7550  142.2006  167.7745 N.ar    1  UNL1       -0.2206
      7 C         142.4745  142.1090  166.4614 C.ar    1  UNL1        0.1505
      8 C         141.9880  141.1628  165.4041 C.ar    1  UNL1        0.0277
      9 C         140.7820  140.3082  165.6598 C.ar    1  UNL1        0.0078
     10 C         140.2954  139.3621  164.6024 C.ar    1  UNL1        0.0371
     11 C         142.7074  141.0712  164.0911 C.ar    1  UNL1        0.0021
     12 C         142.2882  141.9420  162.9439 C.ar    1  UNL1        0.0001
     13 C         143.0077  141.8503  161.6308 C.ar    1  UNL1        0.0000
     14 C         144.1463  140.8880  161.4650 C.ar    1  UNL1        0.0000
     15 C         144.5654  140.0172  162.6122 C.ar    1  UNL1        0.0000
     16 C         143.8460  140.1088  163.9252 C.ar    1  UNL1        0.0001
     17 C         138.6158  137.9765  162.3593 C.3     1  UNL1        0.2525
     18 O         138.6030  137.5613  163.8006 O.3     1  UNL1       -0.4714
     19 N         139.8297  141.4376  169.3431 N.pl3   1  UNL1       -0.3160
     20 H         139.0340  142.0109  169.4295 H       1  UNL1        0.1483
     21 C         140.3227  140.6559  170.5246 C.3     1  UNL1        0.1204
     22 C         141.7290  140.8411  171.0125 C.3     1  UNL1        0.1591
     23 O         142.0525  141.9554  171.9630 O.3     1  UNL1       -0.3802
     24 H         141.2460  142.4575  172.1590 H       1  UNL1        0.2105
     25 C         142.8118  139.9118  170.5499 C.3     1  UNL1        0.1680
     26 O         143.9693  139.6008  171.4519 O.3     1  UNL1       -0.3795
     27 H         144.4942  140.4042  171.5930 H       1  UNL1        0.2105
     28 C         143.6804  142.9636  166.2058 C.1     1  UNL1        0.1198
     29 N         144.8864  143.8182  165.9502 N.1     1  UNL1       -0.1893
@<TRIPOS>BOND
     1    17    18    1
     2    18     1    1
     3     1     2   ar
     4     2     3   ar
     5     3     4   ar
     6     4     5   ar
     7     5    19    1
     8    19    21    1
     9    21    22    1
    10    22    23    1
    11    22    25    1
    12    25    26    1
    13     5     6   ar
    14     6     7   ar
    15     7    28    1
    16    28    29    3
    17     7     8   ar
    18     8    11    1
    19    11    12   ar
    20    12    13   ar
    21    13    14   ar
    22    14    15   ar
    23    15    16   ar
    24     8     9   ar
    25     9    10   ar
    26    10     1   ar
    27     9     4   ar
    28    16    11   ar
    29    19    20    1
    30    23    24    1
    31    26    27    1
@<TRIPOS>MOLECULE
*****
 29 31 0 0 0
SMALL
GASTEIGER

@<TRIPOS>ATOM
      1 C         142.9658  142.3404  163.5633 C.ar    1  UNL1        0.1387
      2 C         143.6237  143.0268  164.7234 C.ar    1  UNL1        0.0370
      3 C         143.1116  142.8038  166.1155 C.ar    1  UNL1        0.0059
      4 C         141.9415  141.8943  166.3475 C.ar    1  UNL1        0.0317
      5 C         141.4293  141.6713  167.7396 C.ar    1  UNL1        0.1292
      6 N         140.2593  140.7619  167.9715 N.ar    1  UNL1       -0.2206
      7 C         139.6013  140.0754  166.8114 C.ar    1  UNL1        0.1505
      8 C         140.1135  140.2985  165.4193 C.ar    1  UNL1        0.0277
      9 C         141.2836  141.2079  165.1873 C.ar    1  UNL1        0.0078
     10 C         141.7958  141.4310  163.7952 C.ar    1  UNL1        0.0371
     11 C         139.4556  139.6121  164.2591 C.ar    1  UNL1        0.0021
     12 C         139.8808  138.2280  163.8671 C.ar    1  UNL1        0.0001
     13 C         139.2229  137.5416  162.7069 C.ar    1  UNL1        0.0000
     14 C         138.1397  138.2393  161.9387 C.ar    1  UNL1        0.0000
     15 C         137.7145  139.6233  162.3307 C.ar    1  UNL1        0.0000
     16 C         138.3724  140.3097  163.4909 C.ar    1  UNL1        0.0001
     17 C         144.9198  142.3010  161.8515 C.3     1  UNL1        0.2525
     18 O         143.4780  142.5634  162.1712 O.3     1  UNL1       -0.4714
     19 N         142.0872  142.3577  168.8997 N.pl3   1  UNL1       -0.3160
     20 H         141.8622  143.2927  169.1106 H       1  UNL1        0.1483
     21 C         143.0880  141.6196  169.7386 C.3     1  UNL1        0.1204
     22 C         142.6215  140.6369  170.7715 C.3     1  UNL1        0.1591
     23 O         143.5301  139.5301  171.2180 O.3     1  UNL1       -0.3802
     24 H         144.3742  139.5937  170.7443 H       1  UNL1        0.2105
     25 C         141.2464  140.7610  171.3578 C.3     1  UNL1        0.1680
     26 O         140.7514  142.0947  171.8331 O.3     1  UNL1       -0.3795
     27 H         141.2790  142.3829  172.5944 H       1  UNL1        0.2105
     28 C         138.4312  139.1660  167.0433 C.1     1  UNL1        0.1198
     29 N         137.2611  138.2565  167.2753 N.1     1  UNL1       -0.1893
@<TRIPOS>BOND
     1    17    18    1
     2    18     1    1
     3     1     2   ar
     4     2     3   ar
     5     3     4   ar
     6     4     5   ar
     7     5    19    1
     8    19    21    1
     9    21    22    1
    10    22    23    1
    11    22    25    1
    12    25    26    1
    13     5     6   ar
    14     6     7   ar
    15     7    28    1
    16    28    29    3
    17     7     8   ar
    18     8    11    1
    19    11    12   ar
    20    12    13   ar
    21    13    14   ar
    22    14    15   ar
    23    15    16   ar
    24     8     9   ar
    25     9    10   ar
    26    10     1   ar
    27     9     4   ar
    28    16    11   ar
    29    19    20    1
    30    23    24    1
    31    26    27    1
@<TRIPOS>MOLECULE
*****
 29 31 0 0 0
SMALL
GASTEIGER

@<TRIPOS>ATOM
      1 C         143.0615  142.7805  163.8030 C.ar    1  UNL1        0.1387
      2 C         142.5591  142.0601  162.5871 C.ar    1  UNL1        0.0370
      3 C         141.4582  141.0494  162.7156 C.ar    1  UNL1        0.0059
      4 C         140.8598  140.7591  164.0600 C.ar    1  UNL1        0.0317
      5 C         139.7589  139.7483  164.1885 C.ar    1  UNL1        0.1292
      6 N         139.1605  139.4581  165.5330 N.ar    1  UNL1       -0.2206
      7 C         139.6629  140.1785  166.7490 C.ar    1  UNL1        0.1505
      8 C         140.7637  141.1893  166.6205 C.ar    1  UNL1        0.0277
      9 C         141.3622  141.4795  165.2759 C.ar    1  UNL1        0.0078
     10 C         142.4631  142.4903  165.1474 C.ar    1  UNL1        0.0371
     11 C         141.2662  141.9097  167.8364 C.ar    1  UNL1        0.0021
     12 C         142.6195  141.5841  168.3953 C.ar    1  UNL1        0.0001
     13 C         143.1219  142.3046  169.6113 C.ar    1  UNL1        0.0000
     14 C         142.2710  143.3507  170.2683 C.ar    1  UNL1        0.0000
     15 C         140.9176  143.6762  169.7093 C.ar    1  UNL1        0.0000
     16 C         140.4152  142.9558  168.4934 C.ar    1  UNL1        0.0001
     17 C         143.8911  145.2370  163.9679 C.3     1  UNL1        0.2525
     18 O         144.1624  143.7913  163.6744 O.3     1  UNL1       -0.4714
     19 N         139.2565  139.0279  162.9726 N.pl3   1  UNL1       -0.3160
     20 H         139.7636  138.2677  162.6063 H       1  UNL1        0.1483
     21 C         137.9814  139.4656  162.3149 C.3     1  UNL1        0.1204
     22 C         137.5702  140.9075  162.3613 C.3     1  UNL1        0.1591
     23 O         136.5768  141.3715  163.3848 O.3     1  UNL1       -0.3802
     24 H         136.3025  140.6198  163.9332 H       1  UNL1        0.2105
     25 C         138.1524  141.8852  161.3840 C.3     1  UNL1        0.1680
     26 O         137.6409  143.2945  161.3381 O.3     1  UNL1       -0.3795
     27 H         136.7187  143.2942  161.0374 H       1  UNL1        0.2105
     28 C         139.0644  139.8882  168.0934 C.1     1  UNL1        0.1198
     29 N         138.4660  139.5980  169.4379 N.1     1  UNL1       -0.1893
@<TRIPOS>BOND
     1    17    18    1
     2    18     1    1
     3     1     2   ar
     4     2     3   ar
     5     3     4   ar
     6     4     5   ar
     7     5    19    1
     8    19    21    1
     9    21    22    1
    10    22    23    1
    11    22    25    1
    12    25    26    1
    13     5     6   ar
    14     6     7   ar
    15     7    28    1
    16    28    29    3
    17     7     8   ar
    18     8    11    1
    19    11    12   ar
    20    12    13   ar
    21    13    14   ar
    22    14    15   ar
    23    15    16   ar
    24     8     9   ar
    25     9    10   ar
    26    10     1   ar
    27     9     4   ar
    28    16    11   ar
    29    19    20    1
    30    23    24    1
    31    26    27    1
@<TRIPOS>MOLECULE
*****
 29 31 0 0 0
SMALL
GASTEIGER

@<TRIPOS>ATOM
      1 C         142.6289  142.7450  164.1119 C.ar    1  UNL1        0.1387
      2 C         141.8909  142.0799  162.9882 C.ar    1  UNL1        0.0370
      3 C         140.7594  141.1412  163.2858 C.ar    1  UNL1        0.0059
      4 C         140.3659  140.8676  164.7071 C.ar    1  UNL1        0.0317
      5 C         139.2345  139.9289  165.0047 C.ar    1  UNL1        0.1292
      6 N         138.8410  139.6553  166.4261 N.ar    1  UNL1       -0.2206
      7 C         139.5790  140.3204  167.5499 C.ar    1  UNL1        0.1505
      8 C         140.7105  141.2591  167.2523 C.ar    1  UNL1        0.0277
      9 C         141.1039  141.5327  165.8309 C.ar    1  UNL1        0.0078
     10 C         142.2354  142.4714  165.5333 C.ar    1  UNL1        0.0371
     11 C         141.4485  141.9243  168.3761 C.ar    1  UNL1        0.0021
     12 C         140.8280  143.0830  169.0989 C.ar    1  UNL1        0.0001
     13 C         141.5661  143.7481  170.2227 C.ar    1  UNL1        0.0000
     14 C         142.9246  143.2546  170.6236 C.ar    1  UNL1        0.0000
     15 C         143.5451  142.0959  169.9008 C.ar    1  UNL1        0.0000
     16 C         142.8071  141.4307  168.7771 C.ar    1  UNL1        0.0001
     17 C         143.4778  145.1227  163.4989 C.3     1  UNL1        0.2525
     18 O         143.7603  143.6838  163.8143 O.3     1  UNL1       -0.4714
     19 N         138.4964  139.2637  163.8810 N.pl3   1  UNL1       -0.3160
     20 H         137.7609  139.7357  163.4276 H       1  UNL1        0.1483
     21 C         138.8790  137.8795  163.4479 C.3     1  UNL1        0.1204
     22 C         139.9238  137.6869  162.3889 C.3     1  UNL1        0.1591
     23 O         141.1610  136.8945  162.6913 O.3     1  UNL1       -0.3802
     24 H         141.1277  136.5804  163.6084 H       1  UNL1        0.2105
     25 C         139.7313  138.2866  161.0276 C.3     1  UNL1        0.1680
     26 O         138.7768  139.4282  160.8391 O.3     1  UNL1       -0.3795
     27 H         137.8718  139.1249  161.0123 H       1  UNL1        0.2105
     28 C         139.1856  140.0468  168.9713 C.1     1  UNL1        0.1198
     29 N         138.7921  139.7732  170.3927 N.1     1  UNL1       -0.1893
@<TRIPOS>BOND
     1    17    18    1
     2    18     1    1
     3     1     2   ar
     4     2     3   ar
     5     3     4   ar
     6     4     5   ar
     7     5    19    1
     8    19    21    1
     9    21    22    1
    10    22    23    1
    11    22    25    1
    12    25    26    1
    13     5     6   ar
    14     6     7   ar
    15     7    28    1
    16    28    29    3
    17     7     8   ar
    18     8    11    1
    19    11    12   ar
    20    12    13   ar
    21    13    14   ar
    22    14    15   ar
    23    15    16   ar
    24     8     9   ar
    25     9    10   ar
    26    10     1   ar
    27     9     4   ar
    28    16    11   ar
    29    19    20    1
    30    23    24    1
    31    26    27    1
@<TRIPOS>MOLECULE
*****
 29 31 0 0 0
SMALL
GASTEIGER

@<TRIPOS>ATOM
      1 C         139.3465  142.7336  164.1811 C.ar    1  UNL1        0.1387
      2 C         139.8573  142.0240  162.9623 C.ar    1  UNL1        0.0370
      3 C         140.8208  140.8835  163.1070 C.ar    1  UNL1        0.0059
      4 C         141.2735  140.4526  164.4706 C.ar    1  UNL1        0.0317
      5 C         142.2370  139.3121  164.6153 C.ar    1  UNL1        0.1292
      6 N         142.6897  138.8812  165.9789 N.ar    1  UNL1       -0.2206
      7 C         142.1789  139.5908  167.1978 C.ar    1  UNL1        0.1505
      8 C         141.2154  140.7313  167.0530 C.ar    1  UNL1        0.0277
      9 C         140.7627  141.1622  165.6894 C.ar    1  UNL1        0.0078
     10 C         139.7992  142.3027  165.5446 C.ar    1  UNL1        0.0371
     11 C         140.7046  141.4409  168.2718 C.ar    1  UNL1        0.0021
     12 C         141.2459  142.7918  168.6352 C.ar    1  UNL1        0.0001
     13 C         140.7350  143.5014  169.8541 C.ar    1  UNL1        0.0000
     14 C         139.6829  142.8600  170.7095 C.ar    1  UNL1        0.0000
     15 C         139.1417  141.5091  170.3461 C.ar    1  UNL1        0.0000
     16 C         139.6525  140.7995  169.1273 C.ar    1  UNL1        0.0001
     17 C         138.4350  144.7500  162.8197 C.3     1  UNL1        0.2525
     18 O         138.3830  143.8741  164.0363 O.3     1  UNL1       -0.4714
     19 N         142.7478  138.6025  163.3965 N.pl3   1  UNL1       -0.3160
     20 H         142.1963  137.9130  162.9610 H       1  UNL1        0.1483
     21 C         144.0989  138.9435  162.8412 C.3     1  UNL1        0.1204
     22 C         144.4338  140.3662  162.5037 C.3     1  UNL1        0.1591
     23 O         144.0189  140.9410  161.1819 O.3     1  UNL1       -0.3802
     24 H         143.5476  140.2658  160.6692 H       1  UNL1        0.2105
     25 C         145.1837  141.2139  163.4881 C.3     1  UNL1        0.1680
     26 O         146.5175  141.7915  163.1175 O.3     1  UNL1       -0.3795
     27 H         147.1591  141.0737  162.9996 H       1  UNL1        0.2105
     28 C         142.6316  139.1599  168.5614 C.1     1  UNL1        0.1198
     29 N         143.0843  138.7290  169.9250 N.1     1  UNL1       -0.1893
@<TRIPOS>BOND
     1    17    18    1
     2    18     1    1
     3     1     2   ar
     4     2     3   ar
     5     3     4   ar
     6     4     5   ar
     7     5    19    1
     8    19    21    1
     9    21    22    1
    10    22    23    1
    11    22    25    1
    12    25    26    1
    13     5     6   ar
    14     6     7   ar
    15     7    28    1
    16    28    29    3
    17     7     8   ar
    18     8    11    1
    19    11    12   ar
    20    12    13   ar
    21    13    14   ar
    22    14    15   ar
    23    15    16   ar
    24     8     9   ar
    25     9    10   ar
    26    10     1   ar
    27     9     4   ar
    28    16    11   ar
    29    19    20    1
    30    23    24    1
    31    26    27    1
@<TRIPOS>MOLECULE
*****
 29 31 0 0 0
SMALL
GASTEIGER

@<TRIPOS>ATOM
      1 C         139.6771  143.3272  163.5769 C.ar    1  UNL1        0.1387
      2 C         139.2954  144.1778  164.7519 C.ar    1  UNL1        0.0370
      3 C         139.7697  143.8130  166.1274 C.ar    1  UNL1        0.0059
      4 C         140.6257  142.5977  166.3279 C.ar    1  UNL1        0.0317
      5 C         141.0999  142.2330  167.7034 C.ar    1  UNL1        0.1292
      6 N         141.9559  141.0177  167.9039 N.ar    1  UNL1       -0.2206
      7 C         142.3377  140.1670  166.7288 C.ar    1  UNL1        0.1505
      8 C         141.8634  140.5318  165.3533 C.ar    1  UNL1        0.0277
      9 C         141.0074  141.7471  165.1529 C.ar    1  UNL1        0.0078
     10 C         140.5331  142.1119  163.7773 C.ar    1  UNL1        0.0371
     11 C         142.2452  139.6812  164.1783 C.ar    1  UNL1        0.0021
     12 C         143.5255  139.9478  163.4438 C.ar    1  UNL1        0.0001
     13 C         143.9073  139.0972  162.2687 C.ar    1  UNL1        0.0000
     14 C         143.0086  137.9799  161.8282 C.ar    1  UNL1        0.0000
     15 C         141.7282  137.7133  162.5626 C.ar    1  UNL1        0.0000
     16 C         141.3465  138.5639  163.7377 C.ar    1  UNL1        0.0001
     17 C         139.8462  144.8280  161.4629 C.3     1  UNL1        0.2525
     18 O         139.2029  143.6919  162.2013 O.3     1  UNL1       -0.4714
     19 N         140.7182  143.0836  168.8784 N.pl3   1  UNL1       -0.3160
     20 H         140.9175  144.0477  168.8737 H       1  UNL1        0.1483
     21 C         140.0328  142.4653  170.0608 C.3     1  UNL1        0.1204
     22 C         140.8057  141.5907  171.0030 C.3     1  UNL1        0.1591
     23 O         141.8273  142.1952  171.9201 O.3     1  UNL1       -0.3802
     24 H         141.8629  143.1539  171.7772 H       1  UNL1        0.2105
     25 C         140.5571  140.1117  171.0282 C.3     1  UNL1        0.1680
     26 O         141.5385  139.1752  170.3880 O.3     1  UNL1       -0.3795
     27 H         141.5473  139.3220  169.4293 H       1  UNL1        0.2105
     28 C         143.1937  138.9517  166.9293 C.1     1  UNL1        0.1198
     29 N         144.0497  137.7363  167.1298 N.1     1  UNL1       -0.1893
@<TRIPOS>BOND
     1    17    18    1
     2    18     1    1
     3     1     2   ar
     4     2     3   ar
     5     3     4   ar
     6     4     5   ar
     7     5    19    1
     8    19    21    1
     9    21    22    1
    10    22    23    1
    11    22    25    1
    12    25    26    1
    13     5     6   ar
    14     6     7   ar
    15     7    28    1
    16    28    29    3
    17     7     8   ar
    18     8    11    1
    19    11    12   ar
    20    12    13   ar
    21    13    14   ar
    22    14    15   ar
    23    15    16   ar
    24     8     9   ar
    25     9    10   ar
    26    10     1   ar
    27     9     4   ar
    28    16    11   ar
    29    19    20    1
    30    23    24    1
    31    26    27    1
@<TRIPOS>MOLECULE
*****
 29 31 0 0 0
SMALL
GASTEIGER

@<TRIPOS>ATOM
      1 C         139.3613  144.6707  163.6143 C.ar    1  UNL1        0.1387
      2 C         138.7697  144.7132  164.9920 C.ar    1  UNL1        0.0370
      3 C         139.3364  143.8483  166.0786 C.ar    1  UNL1        0.0059
      4 C         140.4947  142.9408  165.7875 C.ar    1  UNL1        0.0317
      5 C         141.0614  142.0758  166.8741 C.ar    1  UNL1        0.1292
      6 N         142.2197  141.1683  166.5829 N.ar    1  UNL1       -0.2206
      7 C         142.8113  141.1257  165.2051 C.ar    1  UNL1        0.1505
      8 C         142.2446  141.9907  164.1185 C.ar    1  UNL1        0.0277
      9 C         141.0862  142.8982  164.4097 C.ar    1  UNL1        0.0078
     10 C         140.5195  143.7632  163.3231 C.ar    1  UNL1        0.0371
     11 C         142.8361  141.9482  162.7408 C.ar    1  UNL1        0.0021
     12 C         142.2909  140.9943  161.7195 C.ar    1  UNL1        0.0001
     13 C         142.8825  140.9518  160.3417 C.ar    1  UNL1        0.0000
     14 C         144.0193  141.8631  159.9852 C.ar    1  UNL1        0.0000
     15 C         144.5646  142.8170  161.0065 C.ar    1  UNL1        0.0000
     16 C         143.9730  142.8595  162.3842 C.ar    1  UNL1        0.0001
     17 C         139.7137  146.2939  161.6166 C.3     1  UNL1        0.2525
     18 O         138.7946  145.5357  162.5277 O.3     1  UNL1       -0.4714
     19 N         140.4698  142.1183  168.2518 N.pl3   1  UNL1       -0.3160
     20 H         139.5514  141.7978  168.4032 H       1  UNL1        0.1483
     21 C         141.2776  142.6492  169.3988 C.3     1  UNL1        0.1204
     22 C         141.4827  141.8086  170.6242 C.3     1  UNL1        0.1591
     23 O         140.7517  142.1394  171.8915 O.3     1  UNL1       -0.3802
     24 H         140.1924  142.9189  171.7482 H       1  UNL1        0.2105
     25 C         142.4187  140.6373  170.5822 C.3     1  UNL1        0.1680
     26 O         143.0259  140.2088  169.2793 O.3     1  UNL1       -0.3795
     27 H         142.3287  139.8806  168.6901 H       1  UNL1        0.2105
     28 C         143.9695  140.2182  164.9140 C.1     1  UNL1        0.1198
     29 N         145.1278  139.3106  164.6228 N.1     1  UNL1       -0.1893
@<TRIPOS>BOND
     1    17    18    1
     2    18     1    1
     3     1     2   ar
     4     2     3   ar
     5     3     4   ar
     6     4     5   ar
     7     5    19    1
     8    19    21    1
     9    21    22    1
    10    22    23    1
    11    22    25    1
    12    25    26    1
    13     5     6   ar
    14     6     7   ar
    15     7    28    1
    16    28    29    3
    17     7     8   ar
    18     8    11    1
    19    11    12   ar
    20    12    13   ar
    21    13    14   ar
    22    14    15   ar
    23    15    16   ar
    24     8     9   ar
    25     9    10   ar
    26    10     1   ar
    27     9     4   ar
    28    16    11   ar
    29    19    20    1
    30    23    24    1
    31    26    27    1
@<TRIPOS>MOLECULE
*****
 29 31 0 0 0
SMALL
GASTEIGER

@<TRIPOS>ATOM
      1 C         142.3434  143.3185  163.9595 C.ar    1  UNL1        0.1387
      2 C         141.6630  143.5536  162.6436 C.ar    1  UNL1        0.0370
      3 C         140.3855  142.8367  162.3211 C.ar    1  UNL1        0.0059
      4 C         139.7884  141.8846  163.3145 C.ar    1  UNL1        0.0317
      5 C         138.5110  141.1676  162.9920 C.ar    1  UNL1        0.1292
      6 N         137.9139  140.2155  163.9855 N.ar    1  UNL1       -0.2206
      7 C         138.5943  139.9803  165.3015 C.ar    1  UNL1        0.1505
      8 C         139.8718  140.6973  165.6240 C.ar    1  UNL1        0.0277
      9 C         140.4688  141.6494  164.6304 C.ar    1  UNL1        0.0078
     10 C         141.7463  142.3664  164.9529 C.ar    1  UNL1        0.0371
     11 C         140.5522  140.4622  166.9399 C.ar    1  UNL1        0.0021
     12 C         141.7571  139.5717  167.0127 C.ar    1  UNL1        0.0001
     13 C         142.4375  139.3366  168.3287 C.ar    1  UNL1        0.0000
     14 C         141.9130  139.9919  169.5719 C.ar    1  UNL1        0.0000
     15 C         140.7081  140.8824  169.4991 C.ar    1  UNL1        0.0000
     16 C         140.0277  141.1175  168.1831 C.ar    1  UNL1        0.0001
     17 C         144.5011  143.5378  165.3899 C.3     1  UNL1        0.2525
     18 O         143.6209  144.0354  164.2820 O.3     1  UNL1       -0.4714
     19 N         137.8306  141.4027  161.6761 N.pl3   1  UNL1       -0.3160
     20 H         137.3138  142.2278  161.5296 H       1  UNL1        0.1483
     21 C         137.9375  140.3808  160.5833 C.3     1  UNL1        0.1204
     22 C         139.1547  139.5093  160.4879 C.3     1  UNL1        0.1591
     23 O         140.4193  140.0501  159.8894 O.3     1  UNL1       -0.3802
     24 H         140.2802  140.9706  159.6168 H       1  UNL1        0.2105
     25 C         139.1072  138.0971  160.9912 C.3     1  UNL1        0.1680
     26 O         138.0845  137.6992  162.0137 O.3     1  UNL1       -0.3795
     27 H         138.2632  138.1625  162.8470 H       1  UNL1        0.2105
     28 C         137.9972  139.0283  166.2949 C.1     1  UNL1        0.1198
     29 N         137.4001  138.0761  167.2884 N.1     1  UNL1       -0.1893
@<TRIPOS>BOND
     1    17    18    1
     2    18     1    1
     3     1     2   ar
     4     2     3   ar
     5     3     4   ar
     6     4     5   ar
     7     5    19    1
     8    19    21    1
     9    21    22    1
    10    22    23    1
    11    22    25    1
    12    25    26    1
    13     5     6   ar
    14     6     7   ar
    15     7    28    1
    16    28    29    3
    17     7     8   ar
    18     8    11    1
    19    11    12   ar
    20    12    13   ar
    21    13    14   ar
    22    14    15   ar
    23    15    16   ar
    24     8     9   ar
    25     9    10   ar
    26    10     1   ar
    27     9     4   ar
    28    16    11   ar
    29    19    20    1
    30    23    24    1
    31    26    27    1
