@<TRIPOS>MOLECULE
*****
 32 36 0 0 0
SMALL
GASTEIGER

@<TRIPOS>ATOM
      1 C         140.5219  137.7305  162.1536 C.3     1  UNL1        0.0730
      2 N         141.7859  138.2909  162.7352 N.3     1  UNL1       -0.2724
      3 C         143.1623  138.1473  162.1564 C.3     1  UNL1        0.0724
      4 C         144.1225  138.8609  163.0612 C.3     1  UNL1        0.0214
      5 C         144.8257  139.6386  164.1339 C.3     1  UNL1        0.0072
      6 C         143.3396  139.4456  164.1993 C.3     1  UNL1        0.0350
      7 C         141.8956  139.0933  163.9978 C.3     1  UNL1        0.0761
      8 C         143.1385  140.2077  165.4755 C.ar    1  UNL1       -0.0215
      9 C         143.4559  141.6726  165.5322 C.ar    1  UNL1       -0.0046
     10 C         143.2548  142.4348  166.8085 C.ar    1  UNL1       -0.0046
     11 C         142.7364  141.7319  168.0280 C.ar    1  UNL1       -0.0228
     12 C         142.4190  140.2669  167.9713 C.ar    1  UNL1       -0.0046
     13 C         142.6201  139.5048  166.6950 C.ar    1  UNL1       -0.0046
     14 C         142.5353  142.4939  169.3043 C.3     1  UNL1        0.0189
     15 C         141.1113  142.7644  168.9184 C.3     1  UNL1        0.0044
     16 C         143.9593  142.2234  169.6901 C.3     1  UNL1        0.0044
     17 C         142.3342  143.2560  170.5805 C.3     1  UNL1        0.0044
     18 C         139.2090  137.9762  162.8360 C.3     1  UNL1        0.0294
     19 C         138.0598  138.5549  162.0651 C.3     1  UNL1        0.0666
     20 S         137.9496  140.0401  161.8848 S.3     1  UNL1       -0.0756
     21 C         140.9471  142.3133  162.8398 C.ar    1  UNL1        0.2029
     22 N         140.1225  142.3802  164.0910 N.ar    1  UNL1       -0.1250
     23 N         138.8993  141.5368  163.8856 N.ar    1  UNL1       -0.1220
     24 C         138.9679  140.9486  162.5074 C.ar    1  UNL1        0.1933
     25 N         140.2336  141.4286  161.8611 N.ar    1  UNL1       -0.2860
     26 C         140.7032  141.0842  160.4788 C.3     1  UNL1        0.1341
     27 C         141.6067  145.4357  163.5222 C.3     1  UNL1        0.0556
     28 C         142.5588  144.4442  162.9217 C.ar    1  UNL1        0.1001
     29 N         143.9813  144.7140  162.5295 N.ar    1  UNL1       -0.2085
     30 C         144.5572  143.4455  161.9734 C.ar    1  UNL1        0.2849
     31 O         143.4908  142.3919  162.0220 O.2     1  UNL1       -0.4283
     32 C         142.2557  143.0091  162.6081 C.ar    1  UNL1        0.1964
@<TRIPOS>BOND
     1    27    28    1
     2    28    29   ar
     3    29    30   ar
     4    30    31   ar
     5    31    32   ar
     6    32    21    1
     7    21    22   ar
     8    22    23   ar
     9    23    24   ar
    10    24    20    1
    11    20    19    1
    12    19    18    1
    13    18     1    1
    14     1     2    1
    15     2     3    1
    16     3     4    1
    17     4     5    1
    18     5     6    1
    19     6     8    1
    20     8     9   ar
    21     9    10   ar
    22    10    11   ar
    23    11    14    1
    24    14    15    1
    25    14    16    1
    26    14    17    1
    27    11    12   ar
    28    12    13   ar
    29     6     7    1
    30    24    25   ar
    31    25    26    1
    32    32    28   ar
    33    25    21   ar
    34     7     2    1
    35     6     4    1
    36    13     8   ar
@<TRIPOS>MOLECULE
*****
 32 36 0 0 0
SMALL
GASTEIGER

@<TRIPOS>ATOM
      1 C         142.6155  144.0295  161.2246 C.3     1  UNL1        0.0730
      2 N         143.3581  143.0320  162.0633 N.3     1  UNL1       -0.2724
      3 C         144.6703  142.3925  161.7179 C.3     1  UNL1        0.0724
      4 C         145.0421  141.4641  162.8358 C.3     1  UNL1        0.0214
      5 C         145.1440  140.6331  164.0804 C.3     1  UNL1        0.0072
      6 C         143.9597  141.5298  163.8723 C.3     1  UNL1        0.0350
      7 C         142.9190  142.4988  163.3948 C.3     1  UNL1        0.0761
      8 C         143.2730  141.1841  165.1602 C.ar    1  UNL1       -0.0215
      9 C         143.3497  142.1239  166.3268 C.ar    1  UNL1       -0.0046
     10 C         142.6629  141.7782  167.6148 C.ar    1  UNL1       -0.0046
     11 C         141.8995  140.4927  167.7362 C.ar    1  UNL1       -0.0228
     12 C         141.8229  139.5529  166.5696 C.ar    1  UNL1       -0.0046
     13 C         142.5096  139.8986  165.2816 C.ar    1  UNL1       -0.0046
     14 C         141.2128  140.1470  169.0242 C.3     1  UNL1        0.0189
     15 C         142.4480  139.4360  169.4920 C.3     1  UNL1        0.0044
     16 C         139.9776  140.8580  168.5565 C.3     1  UNL1        0.0044
     17 C         140.5261  139.8013  170.3122 C.3     1  UNL1        0.0044
     18 C         141.1202  144.1134  161.3070 C.3     1  UNL1        0.0294
     19 C         140.4740  144.9948  162.3345 C.3     1  UNL1        0.0666
     20 S         139.0707  144.7164  162.7856 S.3     1  UNL1       -0.0756
     21 C         138.2332  141.0414  163.7120 C.ar    1  UNL1        0.2029
     22 N         137.4505  141.2061  162.4430 N.ar    1  UNL1       -0.1250
     23 N         137.6689  142.6027  161.9416 N.ar    1  UNL1       -0.1220
     24 C         138.5867  143.3013  162.9006 C.ar    1  UNL1        0.1933
     25 N         138.9354  142.3363  163.9947 N.ar    1  UNL1       -0.2860
     26 C         139.8294  142.6171  165.1661 C.3     1  UNL1        0.1341
     27 C         139.3590  138.1343  162.7472 C.3     1  UNL1        0.0556
     28 C         138.8191  138.4636  164.1074 C.ar    1  UNL1        0.1001
     29 N         138.7020  137.5144  165.2630 N.ar    1  UNL1       -0.2085
     30 C         138.1121  138.2640  166.4206 C.ar    1  UNL1        0.2849
     31 O         137.8647  139.6764  165.9805 O.2     1  UNL1       -0.4283
     32 C         138.3017  139.7998  164.5509 C.ar    1  UNL1        0.1964
@<TRIPOS>BOND
     1    27    28    1
     2    28    29   ar
     3    29    30   ar
     4    30    31   ar
     5    31    32   ar
     6    32    21    1
     7    21    22   ar
     8    22    23   ar
     9    23    24   ar
    10    24    20    1
    11    20    19    1
    12    19    18    1
    13    18     1    1
    14     1     2    1
    15     2     3    1
    16     3     4    1
    17     4     5    1
    18     5     6    1
    19     6     8    1
    20     8     9   ar
    21     9    10   ar
    22    10    11   ar
    23    11    14    1
    24    14    15    1
    25    14    16    1
    26    14    17    1
    27    11    12   ar
    28    12    13   ar
    29     6     7    1
    30    24    25   ar
    31    25    26    1
    32    32    28   ar
    33    25    21   ar
    34     7     2    1
    35     6     4    1
    36    13     8   ar
@<TRIPOS>MOLECULE
*****
 32 36 0 0 0
SMALL
GASTEIGER

@<TRIPOS>ATOM
      1 C         144.5390  139.9247  162.2098 C.3     1  UNL1        0.0730
      2 N         143.3953  139.2964  162.9497 N.3     1  UNL1       -0.2724
      3 C         142.6798  138.0366  162.5614 C.3     1  UNL1        0.0724
      4 C         141.6087  137.7792  163.5794 C.3     1  UNL1        0.0214
      5 C         140.6450  137.7856  164.7288 C.3     1  UNL1        0.0072
      6 C         141.6621  138.8800  164.5969 C.3     1  UNL1        0.0350
      7 C         142.7663  139.8177  164.2077 C.3     1  UNL1        0.0761
      8 C         141.2458  139.6302  165.8273 C.ar    1  UNL1       -0.0215
      9 C         139.8547  139.4738  166.3662 C.ar    1  UNL1       -0.0046
     10 C         139.4384  140.2240  167.5967 C.ar    1  UNL1       -0.0046
     11 C         140.4131  141.1304  168.2883 C.ar    1  UNL1       -0.0228
     12 C         141.8043  141.2867  167.7493 C.ar    1  UNL1       -0.0046
     13 C         142.2206  140.5366  166.5189 C.ar    1  UNL1       -0.0046
     14 C         139.9968  141.8805  169.5187 C.3     1  UNL1        0.0189
     15 C         140.6086  143.1321  168.9627 C.3     1  UNL1        0.0044
     16 C         139.3851  140.6289  170.0747 C.3     1  UNL1        0.0044
     17 C         139.5805  142.6306  170.7491 C.3     1  UNL1        0.0044
     18 C         145.1605  141.1894  162.7239 C.3     1  UNL1        0.0294
     19 C         145.1418  142.4305  161.8817 C.3     1  UNL1        0.0666
     20 S         144.2833  143.5943  162.2800 S.3     1  UNL1       -0.0756
     21 C         140.6825  142.6242  163.3564 C.ar    1  UNL1        0.2029
     22 N         141.1606  143.3595  164.5733 N.ar    1  UNL1       -0.1250
     23 N         142.5676  143.8123  164.3182 N.ar    1  UNL1       -0.1220
     24 C         142.9591  143.3570  162.9437 C.ar    1  UNL1        0.1933
     25 N         141.7940  142.6226  162.3493 N.ar    1  UNL1       -0.2860
     26 C         141.7486  141.9967  160.9869 C.3     1  UNL1        0.1341
     27 C         137.8315  144.2107  163.2871 C.3     1  UNL1        0.0556
     28 C         138.0198  142.7292  163.1462 C.ar    1  UNL1        0.1001
     29 N         136.9307  141.7169  162.9486 N.ar    1  UNL1       -0.2085
     30 C         137.5680  140.3620  162.8584 C.ar    1  UNL1        0.2849
     31 O         139.0509  140.5370  163.0002 O.2     1  UNL1       -0.4283
     32 C         139.3302  142.0000  163.1780 C.ar    1  UNL1        0.1964
@<TRIPOS>BOND
     1    27    28    1
     2    28    29   ar
     3    29    30   ar
     4    30    31   ar
     5    31    32   ar
     6    32    21    1
     7    21    22   ar
     8    22    23   ar
     9    23    24   ar
    10    24    20    1
    11    20    19    1
    12    19    18    1
    13    18     1    1
    14     1     2    1
    15     2     3    1
    16     3     4    1
    17     4     5    1
    18     5     6    1
    19     6     8    1
    20     8     9   ar
    21     9    10   ar
    22    10    11   ar
    23    11    14    1
    24    14    15    1
    25    14    16    1
    26    14    17    1
    27    11    12   ar
    28    12    13   ar
    29     6     7    1
    30    24    25   ar
    31    25    26    1
    32    32    28   ar
    33    25    21   ar
    34     7     2    1
    35     6     4    1
    36    13     8   ar
@<TRIPOS>MOLECULE
*****
 32 36 0 0 0
SMALL
GASTEIGER

@<TRIPOS>ATOM
      1 C         137.6878  140.3492  161.7685 C.3     1  UNL1        0.0730
      2 N         138.6101  139.4291  162.5120 N.3     1  UNL1       -0.2724
      3 C         139.1215  138.1074  162.0207 C.3     1  UNL1        0.0724
      4 C         140.0104  137.5305  163.0824 C.3     1  UNL1        0.0214
      5 C         140.8279  137.2163  164.3000 C.3     1  UNL1        0.0072
      6 C         140.0482  138.4957  164.2300 C.3     1  UNL1        0.0350
      7 C         139.1828  139.6691  163.8774 C.3     1  UNL1        0.0761
      8 C         140.4579  139.0032  165.5807 C.ar    1  UNL1       -0.0215
      9 C         141.9071  139.0217  165.9671 C.ar    1  UNL1       -0.0046
     10 C         142.3169  139.5292  167.3179 C.ar    1  UNL1       -0.0046
     11 C         141.2773  140.0182  168.2823 C.ar    1  UNL1       -0.0228
     12 C         139.8280  139.9998  167.8959 C.ar    1  UNL1       -0.0046
     13 C         139.4183  139.4923  166.5451 C.ar    1  UNL1       -0.0046
     14 C         141.6870  140.5257  169.6331 C.3     1  UNL1        0.0189
     15 C         142.3064  139.1957  169.9449 C.3     1  UNL1        0.0044
     16 C         141.0676  141.8558  169.3212 C.3     1  UNL1        0.0044
     17 C         142.0967  141.0332  170.9838 C.3     1  UNL1        0.0044
     18 C         138.1084  141.7597  161.4792 C.3     1  UNL1        0.0294
     19 C         137.6259  142.8802  162.3519 C.3     1  UNL1        0.0666
     20 S         138.6122  143.8207  162.9787 S.3     1  UNL1       -0.0756
     21 C         142.0766  142.4291  164.0399 C.ar    1  UNL1        0.2029
     22 N         141.3650  142.4725  165.3597 N.ar    1  UNL1       -0.1250
     23 N         139.9807  142.9990  165.1228 N.ar    1  UNL1       -0.1220
     24 C         139.8366  143.2811  163.6566 C.ar    1  UNL1        0.1933
     25 N         141.1321  142.9289  162.9874 N.ar    1  UNL1       -0.2860
     26 C         141.4304  143.0544  161.5227 C.3     1  UNL1        0.1341
     27 C         142.9768  139.7433  162.4194 C.3     1  UNL1        0.0556
     28 C         143.8992  140.7326  163.0679 C.ar    1  UNL1        0.1001
     29 N         145.3974  140.6610  163.0853 N.ar    1  UNL1       -0.2085
     30 C         145.9096  141.8512  163.8409 C.ar    1  UNL1        0.2849
     31 O         144.7280  142.6584  164.2904 O.2     1  UNL1       -0.4283
     32 C         143.4855  141.9670  163.8127 C.ar    1  UNL1        0.1964
@<TRIPOS>BOND
     1    27    28    1
     2    28    29   ar
     3    29    30   ar
     4    30    31   ar
     5    31    32   ar
     6    32    21    1
     7    21    22   ar
     8    22    23   ar
     9    23    24   ar
    10    24    20    1
    11    20    19    1
    12    19    18    1
    13    18     1    1
    14     1     2    1
    15     2     3    1
    16     3     4    1
    17     4     5    1
    18     5     6    1
    19     6     8    1
    20     8     9   ar
    21     9    10   ar
    22    10    11   ar
    23    11    14    1
    24    14    15    1
    25    14    16    1
    26    14    17    1
    27    11    12   ar
    28    12    13   ar
    29     6     7    1
    30    24    25   ar
    31    25    26    1
    32    32    28   ar
    33    25    21   ar
    34     7     2    1
    35     6     4    1
    36    13     8   ar
@<TRIPOS>MOLECULE
*****
 32 36 0 0 0
SMALL
GASTEIGER

@<TRIPOS>ATOM
      1 C         141.7862  144.5862  160.9680 C.3     1  UNL1        0.0730
      2 N         140.9312  144.5768  162.2004 N.3     1  UNL1       -0.2724
      3 C         139.5999  145.2504  162.3551 C.3     1  UNL1        0.0724
      4 C         139.1033  144.9820  163.7449 C.3     1  UNL1        0.0214
      5 C         138.8751  144.5541  165.1643 C.3     1  UNL1        0.0072
      6 C         140.1277  144.1426  164.4491 C.3     1  UNL1        0.0350
      7 C         141.2574  143.8922  163.4946 C.3     1  UNL1        0.0761
      8 C         140.7158  143.3719  165.5938 C.ar    1  UNL1       -0.0215
      9 C         139.9594  143.2504  166.8833 C.ar    1  UNL1       -0.0046
     10 C         140.5474  142.4797  168.0281 C.ar    1  UNL1       -0.0046
     11 C         141.8919  141.8305  167.8831 C.ar    1  UNL1       -0.0228
     12 C         142.6483  141.9521  166.5934 C.ar    1  UNL1       -0.0046
     13 C         142.0603  142.7228  165.4488 C.ar    1  UNL1       -0.0046
     14 C         142.4800  141.0599  169.0277 C.3     1  UNL1        0.0189
     15 C         141.4751  139.9680  168.8089 C.3     1  UNL1        0.0044
     16 C         143.4849  142.1517  169.2466 C.3     1  UNL1        0.0044
     17 C         143.0681  140.2892  170.1724 C.3     1  UNL1        0.0044
     18 C         141.1566  144.7757  159.6198 C.3     1  UNL1        0.0294
     19 C         139.9486  143.9732  159.2367 C.3     1  UNL1        0.0666
     20 S         139.8781  142.5143  159.5787 S.3     1  UNL1       -0.0756
     21 C         138.4931  140.9452  162.8474 C.ar    1  UNL1        0.2029
     22 N         137.3308  141.7896  162.4161 N.ar    1  UNL1       -0.1250
     23 N         137.7081  142.4801  161.1392 N.ar    1  UNL1       -0.1220
     24 C         139.1036  142.0626  160.7812 C.ar    1  UNL1        0.1933
     25 N         139.5887  141.1139  161.8370 N.ar    1  UNL1       -0.2860
     26 C         140.9336  140.4505  161.8756 C.3     1  UNL1        0.1341
     27 C         138.7662  137.6936  162.8961 C.3     1  UNL1        0.0556
     28 C         138.6753  138.5889  164.0962 C.ar    1  UNL1        0.1001
     29 N         138.6939  138.1466  165.5294 N.ar    1  UNL1       -0.2085
     30 C         138.5799  139.3679  166.3928 C.ar    1  UNL1        0.2849
     31 O         138.4908  140.5648  165.4933 O.2     1  UNL1       -0.4283
     32 C         138.5497  140.0833  164.0739 C.ar    1  UNL1        0.1964
@<TRIPOS>BOND
     1    27    28    1
     2    28    29   ar
     3    29    30   ar
     4    30    31   ar
     5    31    32   ar
     6    32    21    1
     7    21    22   ar
     8    22    23   ar
     9    23    24   ar
    10    24    20    1
    11    20    19    1
    12    19    18    1
    13    18     1    1
    14     1     2    1
    15     2     3    1
    16     3     4    1
    17     4     5    1
    18     5     6    1
    19     6     8    1
    20     8     9   ar
    21     9    10   ar
    22    10    11   ar
    23    11    14    1
    24    14    15    1
    25    14    16    1
    26    14    17    1
    27    11    12   ar
    28    12    13   ar
    29     6     7    1
    30    24    25   ar
    31    25    26    1
    32    32    28   ar
    33    25    21   ar
    34     7     2    1
    35     6     4    1
    36    13     8   ar
@<TRIPOS>MOLECULE
*****
 32 36 0 0 0
SMALL
GASTEIGER

@<TRIPOS>ATOM
      1 C         138.1828  142.5400  161.3613 C.3     1  UNL1        0.0730
      2 N         139.2447  143.2887  162.1109 N.3     1  UNL1       -0.2724
      3 C         139.8696  144.5869  161.6934 C.3     1  UNL1        0.0724
      4 C         140.8792  144.9712  162.7341 C.3     1  UNL1        0.0214
      5 C         141.7984  145.0892  163.9135 C.3     1  UNL1        0.0072
      6 C         140.8784  143.9105  163.7947 C.3     1  UNL1        0.0350
      7 C         139.8682  142.8707  163.4096 C.3     1  UNL1        0.0761
      8 C         141.3095  143.2461  165.0685 C.ar    1  UNL1       -0.0215
      9 C         142.7163  142.7465  165.2149 C.ar    1  UNL1       -0.0046
     10 C         143.1475  142.0820  166.4888 C.ar    1  UNL1       -0.0046
     11 C         142.1718  141.9171  167.6162 C.ar    1  UNL1       -0.0228
     12 C         140.7650  142.4167  167.4697 C.ar    1  UNL1       -0.0046
     13 C         140.3339  143.0812  166.1959 C.ar    1  UNL1       -0.0046
     14 C         142.6029  141.2527  168.8900 C.3     1  UNL1        0.0189
     15 C         141.7284  140.0762  168.5723 C.3     1  UNL1        0.0044
     16 C         143.4775  142.4292  169.2077 C.3     1  UNL1        0.0044
     17 C         143.0341  140.5882  170.1638 C.3     1  UNL1        0.0044
     18 C         138.4414  141.1383  160.8943 C.3     1  UNL1        0.0294
     19 C         137.4055  140.0742  161.1057 C.3     1  UNL1        0.0666
     20 S         137.8064  138.7344  161.6481 S.3     1  UNL1       -0.0756
     21 C         141.4001  138.3112  163.0521 C.ar    1  UNL1        0.2029
     22 N         141.5405  137.6765  161.7003 N.ar    1  UNL1       -0.1250
     23 N         140.2114  137.7577  161.0098 N.ar    1  UNL1       -0.1220
     24 C         139.2496  138.4427  161.9348 C.ar    1  UNL1        0.1933
     25 N         139.9843  138.7848  163.1970 N.ar    1  UNL1       -0.2860
     26 C         139.4048  139.4786  164.3940 C.3     1  UNL1        0.1341
     27 C         144.2356  139.8758  162.6490 C.3     1  UNL1        0.0556
     28 C         143.7884  139.1675  163.8934 C.ar    1  UNL1        0.1001
     29 N         144.5662  139.0540  165.1710 N.ar    1  UNL1       -0.2085
     30 C         143.7436  138.2647  166.1458 C.ar    1  UNL1        0.2849
     31 O         142.4575  137.8904  165.4708 O.2     1  UNL1       -0.4283
     32 C         142.4852  138.4484  164.0787 C.ar    1  UNL1        0.1964
@<TRIPOS>BOND
     1    27    28    1
     2    28    29   ar
     3    29    30   ar
     4    30    31   ar
     5    31    32   ar
     6    32    21    1
     7    21    22   ar
     8    22    23   ar
     9    23    24   ar
    10    24    20    1
    11    20    19    1
    12    19    18    1
    13    18     1    1
    14     1     2    1
    15     2     3    1
    16     3     4    1
    17     4     5    1
    18     5     6    1
    19     6     8    1
    20     8     9   ar
    21     9    10   ar
    22    10    11   ar
    23    11    14    1
    24    14    15    1
    25    14    16    1
    26    14    17    1
    27    11    12   ar
    28    12    13   ar
    29     6     7    1
    30    24    25   ar
    31    25    26    1
    32    32    28   ar
    33    25    21   ar
    34     7     2    1
    35     6     4    1
    36    13     8   ar
@<TRIPOS>MOLECULE
*****
 32 36 0 0 0
SMALL
GASTEIGER

@<TRIPOS>ATOM
      1 C         142.9835  143.7834  161.2235 C.3     1  UNL1        0.0730
      2 N         143.4670  142.5788  161.9752 N.3     1  UNL1       -0.2724
      3 C         144.2962  141.4626  161.4125 C.3     1  UNL1        0.0724
      4 C         144.5480  140.4728  162.5111 C.3     1  UNL1        0.0214
      5 C         144.6300  139.6818  163.7830 C.3     1  UNL1        0.0072
      6 C         143.8744  140.9773  163.7528 C.3     1  UNL1        0.0350
      7 C         143.2063  142.2788  163.4216 C.3     1  UNL1        0.0761
      8 C         143.4557  140.9481  165.1929 C.ar    1  UNL1       -0.0215
      9 C         143.0769  139.6478  165.8376 C.ar    1  UNL1       -0.0046
     10 C         142.6582  139.6186  167.2778 C.ar    1  UNL1       -0.0046
     11 C         142.6184  140.8898  168.0731 C.ar    1  UNL1       -0.0228
     12 C         142.9972  142.1901  167.4283 C.ar    1  UNL1       -0.0046
     13 C         143.4159  142.2193  165.9883 C.ar    1  UNL1       -0.0046
     14 C         142.1997  140.8606  169.5132 C.3     1  UNL1        0.0189
     15 C         141.0050  140.0300  169.1491 C.3     1  UNL1        0.0044
     16 C         143.3945  141.6913  169.8774 C.3     1  UNL1        0.0044
     17 C         141.7810  140.8315  170.9533 C.3     1  UNL1        0.0044
     18 C         141.5189  143.9601  160.9522 C.3     1  UNL1        0.0294
     19 C         140.9378  143.5052  159.6463 C.3     1  UNL1        0.0666
     20 S         139.5941  142.8392  159.6147 S.3     1  UNL1       -0.0756
     21 C         138.5838  141.0197  162.8909 C.ar    1  UNL1        0.2029
     22 N         137.4962  142.0471  162.7827 N.ar    1  UNL1       -0.1250
     23 N         137.7423  142.8537  161.5423 N.ar    1  UNL1       -0.1220
     24 C         138.9819  142.3249  160.8838 C.ar    1  UNL1        0.1933
     25 N         139.5020  141.1914  161.7174 N.ar    1  UNL1       -0.2860
     26 C         140.7255  140.3733  161.4280 C.3     1  UNL1        0.1341
     27 C         139.6048  141.5981  165.9360 C.3     1  UNL1        0.0556
     28 C         139.1971  140.2656  165.3809 C.ar    1  UNL1        0.1001
     29 N         139.1871  138.9649  166.1281 N.ar    1  UNL1       -0.2085
     30 C         138.7116  137.8953  165.1902 C.ar    1  UNL1        0.2849
     31 O         138.4277  138.5347  163.8635 O.2     1  UNL1       -0.4283
     32 C         138.7278  139.9997  163.9813 C.ar    1  UNL1        0.1964
@<TRIPOS>BOND
     1    27    28    1
     2    28    29   ar
     3    29    30   ar
     4    30    31   ar
     5    31    32   ar
     6    32    21    1
     7    21    22   ar
     8    22    23   ar
     9    23    24   ar
    10    24    20    1
    11    20    19    1
    12    19    18    1
    13    18     1    1
    14     1     2    1
    15     2     3    1
    16     3     4    1
    17     4     5    1
    18     5     6    1
    19     6     8    1
    20     8     9   ar
    21     9    10   ar
    22    10    11   ar
    23    11    14    1
    24    14    15    1
    25    14    16    1
    26    14    17    1
    27    11    12   ar
    28    12    13   ar
    29     6     7    1
    30    24    25   ar
    31    25    26    1
    32    32    28   ar
    33    25    21   ar
    34     7     2    1
    35     6     4    1
    36    13     8   ar
@<TRIPOS>MOLECULE
*****
 32 36 0 0 0
SMALL
GASTEIGER

@<TRIPOS>ATOM
      1 C         142.2209  144.3982  161.7529 C.3     1  UNL1        0.0730
      2 N         142.9246  143.2297  162.3770 N.3     1  UNL1       -0.2724
      3 C         143.8696  142.2954  161.6813 C.3     1  UNL1        0.0724
      4 C         144.3359  141.2786  162.6807 C.3     1  UNL1        0.0214
      5 C         144.6168  140.4197  163.8778 C.3     1  UNL1        0.0072
      6 C         143.6790  141.5845  163.9941 C.3     1  UNL1        0.0350
      7 C         142.8068  142.7904  163.8063 C.3     1  UNL1        0.0761
      8 C         143.3651  141.3887  165.4477 C.ar    1  UNL1       -0.0215
      9 C         143.4551  142.5466  166.3970 C.ar    1  UNL1       -0.0046
     10 C         143.1412  142.3508  167.8507 C.ar    1  UNL1       -0.0046
     11 C         142.7374  140.9971  168.3551 C.ar    1  UNL1       -0.0228
     12 C         142.6475  139.8392  167.4057 C.ar    1  UNL1       -0.0046
     13 C         142.9613  140.0350  165.9521 C.ar    1  UNL1       -0.0046
     14 C         142.4235  140.8013  169.8087 C.3     1  UNL1        0.0189
     15 C         142.4593  142.2864  170.0165 C.3     1  UNL1        0.0044
     16 C         142.3878  139.3162  169.6010 C.3     1  UNL1        0.0044
     17 C         142.1097  140.6055  171.2624 C.3     1  UNL1        0.0044
     18 C         141.3018  145.2486  162.5788 C.3     1  UNL1        0.0294
     19 C         139.8583  145.3848  162.1944 C.3     1  UNL1        0.0666
     20 S         138.7976  144.7086  163.0115 S.3     1  UNL1       -0.0756
     21 C         139.5869  141.2102  164.4958 C.ar    1  UNL1        0.2029
     22 N         139.7472  142.0815  165.7062 N.ar    1  UNL1       -0.1250
     23 N         139.4711  143.4980  165.2976 N.ar    1  UNL1       -0.1220
     24 C         139.1401  143.5022  163.8346 C.ar    1  UNL1        0.1933
     25 N         139.2117  142.0882  163.3391 N.ar    1  UNL1       -0.2860
     26 C         138.9534  141.6324  161.9335 C.3     1  UNL1        0.1341
     27 C         138.0094  139.0263  166.3375 C.3     1  UNL1        0.0556
     28 C         139.0447  138.7183  165.2966 C.ar    1  UNL1        0.1001
     29 N         139.5366  137.3523  164.9197 N.ar    1  UNL1       -0.2085
     30 C         140.5658  137.5119  163.8401 C.ar    1  UNL1        0.2849
     31 O         140.7099  138.9764  163.5499 O.2     1  UNL1       -0.4283
     32 C         139.7698  139.7220  164.4501 C.ar    1  UNL1        0.1964
@<TRIPOS>BOND
     1    27    28    1
     2    28    29   ar
     3    29    30   ar
     4    30    31   ar
     5    31    32   ar
     6    32    21    1
     7    21    22   ar
     8    22    23   ar
     9    23    24   ar
    10    24    20    1
    11    20    19    1
    12    19    18    1
    13    18     1    1
    14     1     2    1
    15     2     3    1
    16     3     4    1
    17     4     5    1
    18     5     6    1
    19     6     8    1
    20     8     9   ar
    21     9    10   ar
    22    10    11   ar
    23    11    14    1
    24    14    15    1
    25    14    16    1
    26    14    17    1
    27    11    12   ar
    28    12    13   ar
    29     6     7    1
    30    24    25   ar
    31    25    26    1
    32    32    28   ar
    33    25    21   ar
    34     7     2    1
    35     6     4    1
    36    13     8   ar
@<TRIPOS>MOLECULE
*****
 32 36 0 0 0
SMALL
GASTEIGER

@<TRIPOS>ATOM
      1 C         138.0940  140.5033  161.2827 C.3     1  UNL1        0.0730
      2 N         138.9046  139.5545  162.1150 N.3     1  UNL1       -0.2724
      3 C         139.4875  138.2523  161.6518 C.3     1  UNL1        0.0724
      4 C         140.2178  137.6343  162.8070 C.3     1  UNL1        0.0214
      5 C         140.8541  137.2727  164.1164 C.3     1  UNL1        0.0072
      6 C         140.0863  138.5545  163.9843 C.3     1  UNL1        0.0350
      7 C         139.2747  139.7412  163.5565 C.3     1  UNL1        0.0761
      8 C         140.2959  139.0093  165.3982 C.ar    1  UNL1       -0.0215
      9 C         141.6870  139.1789  165.9330 C.ar    1  UNL1       -0.0046
     10 C         141.8967  139.6336  167.3471 C.ar    1  UNL1       -0.0046
     11 C         140.7152  139.9188  168.2262 C.ar    1  UNL1       -0.0228
     12 C         139.3240  139.7491  167.6912 C.ar    1  UNL1       -0.0046
     13 C         139.1144  139.2944  166.2773 C.ar    1  UNL1       -0.0046
     14 C         140.9248  140.3735  169.6401 C.3     1  UNL1        0.0189
     15 C         142.1114  139.4635  169.7569 C.3     1  UNL1        0.0044
     16 C         139.7381  141.2836  169.5233 C.3     1  UNL1        0.0044
     17 C         141.1344  140.8283  171.0540 C.3     1  UNL1        0.0044
     18 C         138.4842  140.7744  159.8600 C.3     1  UNL1        0.0294
     19 C         138.3514  142.1582  159.2966 C.3     1  UNL1        0.0666
     20 S         139.5145  143.1041  159.3489 S.3     1  UNL1       -0.0756
     21 C         141.2896  143.7286  162.7436 C.ar    1  UNL1        0.2029
     22 N         140.3703  144.9119  162.6752 N.ar    1  UNL1       -0.1250
     23 N         139.5935  144.8220  161.3953 N.ar    1  UNL1       -0.1220
     24 C         140.0327  143.5831  160.6725 C.ar    1  UNL1        0.1933
     25 N         141.0809  142.9074  161.5059 N.ar    1  UNL1       -0.2860
     26 C         141.7951  141.6339  161.1619 C.3     1  UNL1        0.1341
     27 C         140.4898  142.7620  165.7562 C.3     1  UNL1        0.0556
     28 C         141.8815  142.9763  165.2393 C.ar    1  UNL1        0.1001
     29 N         143.1500  142.7840  166.0166 N.ar    1  UNL1       -0.2085
     30 C         144.3015  143.1094  165.1122 C.ar    1  UNL1        0.2849
     31 O         143.7449  143.5028  163.7761 O.2     1  UNL1       -0.4283
     32 C         142.2492  143.4206  163.8547 C.ar    1  UNL1        0.1964
@<TRIPOS>BOND
     1    27    28    1
     2    28    29   ar
     3    29    30   ar
     4    30    31   ar
     5    31    32   ar
     6    32    21    1
     7    21    22   ar
     8    22    23   ar
     9    23    24   ar
    10    24    20    1
    11    20    19    1
    12    19    18    1
    13    18     1    1
    14     1     2    1
    15     2     3    1
    16     3     4    1
    17     4     5    1
    18     5     6    1
    19     6     8    1
    20     8     9   ar
    21     9    10   ar
    22    10    11   ar
    23    11    14    1
    24    14    15    1
    25    14    16    1
    26    14    17    1
    27    11    12   ar
    28    12    13   ar
    29     6     7    1
    30    24    25   ar
    31    25    26    1
    32    32    28   ar
    33    25    21   ar
    34     7     2    1
    35     6     4    1
    36    13     8   ar
