@<TRIPOS>MOLECULE
*****
 33 36 0 0 0
SMALL
GASTEIGER

@<TRIPOS>ATOM
      1 C         138.7773  138.5762  162.8110 C.3     1  UNL1        0.0203
      2 C         138.5168  139.8721  163.5202 C.3     1  UNL1        0.0888
      3 N         138.9562  140.0497  164.9434 N.3     1  UNL1       -0.2713
      4 C         138.3767  139.1822  166.0211 C.3     1  UNL1        0.0749
      5 C         138.8161  139.3598  167.4442 C.3     1  UNL1        0.0485
      6 C         139.8351  140.4048  167.7897 C.3     1  UNL1        0.1096
      7 O         139.5784  139.8311  169.1517 O.3     1  UNL1       -0.3826
      8 C         140.4147  141.2724  166.7120 C.3     1  UNL1        0.0485
      9 C         139.9753  141.0948  165.2888 C.3     1  UNL1        0.0749
     10 H         138.9198  139.1221  169.0850 H       1  UNL1        0.2107
     11 C         140.7650  141.2507  168.6082 C.ar    1  UNL1        0.0019
     12 C         140.3230  142.6008  169.0895 C.ar    1  UNL1        0.0003
     13 C         141.2528  143.4467  169.9080 C.ar    1  UNL1        0.0294
     14 C         142.6248  142.9423  170.2451 C.ar    1  UNL1        0.1401
     15 F         143.5546  143.7882  171.0635 F       1  UNL1       -0.2042
     16 C         143.0667  141.5922  169.7637 C.ar    1  UNL1        0.0294
     17 C         142.1368  140.7464  168.9452 C.ar    1  UNL1        0.0003
     18 C         137.8170  140.9903  162.8063 C.3     1  UNL1        0.1472
     19 O         136.4035  141.3411  163.1656 O.3     1  UNL1       -0.3787
     20 H         136.1036  142.0804  162.6139 H       1  UNL1        0.2108
     21 C         138.5305  141.7578  161.7330 C.ar    1  UNL1        0.0054
     22 C         138.3172  141.4051  160.2908 C.ar    1  UNL1       -0.0007
     23 C         139.0308  142.1726  159.2176 C.ar    1  UNL1        0.0142
     24 C         139.9577  143.2927  159.5867 C.ar    1  UNL1        0.0491
     25 C         140.1710  143.6453  161.0289 C.ar    1  UNL1        0.0108
     26 C         139.4574  142.8779  162.1021 C.ar    1  UNL1       -0.0033
     27 C         141.0979  144.7655  161.3979 C.3     1  UNL1        0.1189
     28 N         141.8115  145.5329  160.3248 N.am    1  UNL1       -0.2846
     29 C         141.5982  145.1803  158.8824 C.2     1  UNL1        0.3047
     30 O         142.3117  145.9478  157.8093 O.2     1  UNL1       -0.2525
     31 N         140.6713  144.0602  158.5134 N.am    1  UNL1       -0.2685
     32 H         142.4198  146.2681  160.5670 H       1  UNL1        0.1513
     33 H         140.5312  143.8288  157.5668 H       1  UNL1        0.1564
@<TRIPOS>BOND
     1     1     2    1
     2     2    18    1
     3    18    19    1
     4    18    21    1
     5    21    22   ar
     6    22    23   ar
     7    23    24   ar
     8    24    25   ar
     9    25    26   ar
    10    25    27    1
    11    27    28    1
    12    28    29   am
    13    29    30    2
    14    29    31   am
    15     2     3    1
    16     3     4    1
    17     4     5    1
    18     5     6    1
    19     6     7    1
    20     6    11    1
    21    11    12   ar
    22    12    13   ar
    23    13    14   ar
    24    14    15    1
    25    14    16   ar
    26    16    17   ar
    27     6     8    1
    28     8     9    1
    29    26    21   ar
    30     9     3    1
    31    31    24    1
    32    17    11   ar
    33    19    20    1
    34    28    32    1
    35    31    33    1
    36     7    10    1
@<TRIPOS>MOLECULE
*****
 33 36 0 0 0
SMALL
GASTEIGER

@<TRIPOS>ATOM
      1 C         140.8233  136.8478  163.8897 C.3     1  UNL1        0.0203
      2 C         140.0114  138.0983  164.0557 C.3     1  UNL1        0.0888
      3 N         140.0325  138.8385  165.3602 N.3     1  UNL1       -0.2713
      4 C         138.8540  138.7621  166.2849 C.3     1  UNL1        0.0749
      5 C         138.8750  139.5024  167.5894 C.3     1  UNL1        0.0485
      6 C         140.0745  140.3189  167.9691 C.3     1  UNL1        0.1096
      7 O         139.2081  140.5546  169.1707 O.3     1  UNL1       -0.3826
      8 C         141.2531  140.3953  167.0443 C.3     1  UNL1        0.0485
      9 C         141.2321  139.6551  165.7398 C.3     1  UNL1        0.0749
     10 H         138.3718  140.0745  169.0655 H       1  UNL1        0.2107
     11 C         140.9732  141.2174  168.7661 C.ar    1  UNL1        0.0019
     12 C         140.4852  142.5649  169.2089 C.ar    1  UNL1        0.0003
     13 C         141.3838  143.4633  170.0059 C.ar    1  UNL1        0.0294
     14 C         142.7706  143.0143  170.3601 C.ar    1  UNL1        0.1401
     15 F         143.6692  143.9127  171.1571 F       1  UNL1       -0.2042
     16 C         143.2586  141.6668  169.9172 C.ar    1  UNL1        0.0294
     17 C         142.3599  140.7684  169.1202 C.ar    1  UNL1        0.0003
     18 C         139.1786  138.6084  162.9172 C.3     1  UNL1        0.1472
     19 O         138.5217  137.6421  161.9766 O.3     1  UNL1       -0.3787
     20 H         138.0250  138.1331  161.3035 H       1  UNL1        0.2108
     21 C         139.0027  140.0849  162.7193 C.ar    1  UNL1        0.0054
     22 C         137.7062  140.7420  163.0898 C.ar    1  UNL1       -0.0007
     23 C         137.5304  142.2184  162.8919 C.ar    1  UNL1        0.0142
     24 C         138.6510  143.0377  162.3235 C.ar    1  UNL1        0.0491
     25 C         139.9474  142.3806  161.9530 C.ar    1  UNL1        0.0108
     26 C         140.1233  140.9041  162.1509 C.ar    1  UNL1       -0.0033
     27 C         141.0680  143.1998  161.3845 C.3     1  UNL1        0.1189
     28 N         140.8921  144.6762  161.1866 N.am    1  UNL1       -0.2846
     29 C         139.5956  145.3335  161.5571 C.2     1  UNL1        0.3047
     30 O         139.4197  146.8099  161.3592 O.2     1  UNL1       -0.2525
     31 N         138.4750  144.5142  162.1256 N.am    1  UNL1       -0.2685
     32 H         141.6276  145.2139  160.8135 H       1  UNL1        0.1513
     33 H         137.6241  144.9455  162.3687 H       1  UNL1        0.1564
@<TRIPOS>BOND
     1     1     2    1
     2     2    18    1
     3    18    19    1
     4    18    21    1
     5    21    22   ar
     6    22    23   ar
     7    23    24   ar
     8    24    25   ar
     9    25    26   ar
    10    25    27    1
    11    27    28    1
    12    28    29   am
    13    29    30    2
    14    29    31   am
    15     2     3    1
    16     3     4    1
    17     4     5    1
    18     5     6    1
    19     6     7    1
    20     6    11    1
    21    11    12   ar
    22    12    13   ar
    23    13    14   ar
    24    14    15    1
    25    14    16   ar
    26    16    17   ar
    27     6     8    1
    28     8     9    1
    29    26    21   ar
    30     9     3    1
    31    31    24    1
    32    17    11   ar
    33    19    20    1
    34    28    32    1
    35    31    33    1
    36     7    10    1
@<TRIPOS>MOLECULE
*****
 33 36 0 0 0
SMALL
GASTEIGER

@<TRIPOS>ATOM
      1 C         139.6532  137.6330  164.4765 C.3     1  UNL1        0.0203
      2 C         139.0111  138.8798  165.0088 C.3     1  UNL1        0.0888
      3 N         138.8363  140.0730  164.1168 N.3     1  UNL1       -0.2713
      4 C         137.5107  140.7717  164.0500 C.3     1  UNL1        0.0749
      5 C         137.3359  141.9649  163.1580 C.3     1  UNL1        0.0485
      6 C         138.4867  142.4593  162.3326 C.3     1  UNL1        0.1096
      7 O         137.4337  143.4492  161.9308 O.3     1  UNL1       -0.3826
      8 C         139.8124  141.7606  162.3993 C.3     1  UNL1        0.0485
      9 C         139.9872  140.5674  163.2914 C.3     1  UNL1        0.0749
     10 H         136.6074  143.2501  162.3983 H       1  UNL1        0.2107
     11 C         139.2718  143.2975  161.3677 C.ar    1  UNL1        0.0019
     12 C         139.9751  144.5327  161.8470 C.ar    1  UNL1        0.0003
     13 C         140.7602  145.3709  160.8822 C.ar    1  UNL1        0.0294
     14 C         140.8420  144.9739  159.4379 C.ar    1  UNL1        0.1401
     15 F         141.6271  145.8121  158.4731 F       1  UNL1       -0.2042
     16 C         140.1387  143.7388  158.9586 C.ar    1  UNL1        0.0294
     17 C         139.3536  142.9006  159.9235 C.ar    1  UNL1        0.0003
     18 C         138.5440  138.9334  166.4332 C.3     1  UNL1        0.1472
     19 O         137.3398  138.1462  166.8577 O.3     1  UNL1       -0.3787
     20 H         137.1753  138.2913  167.8026 H       1  UNL1        0.2108
     21 C         139.2811  139.7742  167.4331 C.ar    1  UNL1        0.0054
     22 C         138.7041  139.9919  168.8005 C.ar    1  UNL1       -0.0007
     23 C         139.4412  140.8327  169.8003 C.ar    1  UNL1        0.0142
     24 C         140.7552  141.4559  169.4328 C.ar    1  UNL1        0.0491
     25 C         141.3321  141.2382  168.0655 C.ar    1  UNL1        0.0108
     26 C         140.5950  140.3974  167.0656 C.ar    1  UNL1       -0.0033
     27 C         142.6461  141.8614  167.6979 C.3     1  UNL1        0.1189
     28 N         143.3831  142.7022  168.6978 N.am    1  UNL1       -0.2846
     29 C         142.8062  142.9199  170.0652 C.2     1  UNL1        0.3047
     30 O         143.5433  143.7607  171.0651 O.2     1  UNL1       -0.2525
     31 N         141.4922  142.2967  170.4328 N.am    1  UNL1       -0.2685
     32 H         144.2456  143.1112  168.4566 H       1  UNL1        0.1513
     33 H         141.1135  142.4396  171.3302 H       1  UNL1        0.1564
@<TRIPOS>BOND
     1     1     2    1
     2     2    18    1
     3    18    19    1
     4    18    21    1
     5    21    22   ar
     6    22    23   ar
     7    23    24   ar
     8    24    25   ar
     9    25    26   ar
    10    25    27    1
    11    27    28    1
    12    28    29   am
    13    29    30    2
    14    29    31   am
    15     2     3    1
    16     3     4    1
    17     4     5    1
    18     5     6    1
    19     6     7    1
    20     6    11    1
    21    11    12   ar
    22    12    13   ar
    23    13    14   ar
    24    14    15    1
    25    14    16   ar
    26    16    17   ar
    27     6     8    1
    28     8     9    1
    29    26    21   ar
    30     9     3    1
    31    31    24    1
    32    17    11   ar
    33    19    20    1
    34    28    32    1
    35    31    33    1
    36     7    10    1
@<TRIPOS>MOLECULE
*****
 33 36 0 0 0
SMALL
GASTEIGER

@<TRIPOS>ATOM
      1 C         144.5453  138.9478  163.0029 C.3     1  UNL1        0.0203
      2 C         144.3751  140.2053  163.8028 C.3     1  UNL1        0.0888
      3 N         143.6939  140.1582  165.1383 N.3     1  UNL1       -0.2713
      4 C         143.7791  138.9199  165.9805 C.3     1  UNL1        0.0749
      5 C         143.0979  138.8728  167.3160 C.3     1  UNL1        0.0485
      6 C         142.3314  140.0640  167.8094 C.3     1  UNL1        0.1096
      7 O         142.1256  139.1263  168.9620 O.3     1  UNL1       -0.3826
      8 C         142.2462  141.3024  166.9673 C.3     1  UNL1        0.0485
      9 C         142.9274  141.3495  165.6317 C.3     1  UNL1        0.0749
     10 H         142.5779  138.2875  168.7811 H       1  UNL1        0.2107
     11 C         141.4934  140.9296  168.7031 C.ar    1  UNL1        0.0019
     12 C         141.9664  142.3038  169.0745 C.ar    1  UNL1        0.0003
     13 C         141.1285  143.1694  169.9681 C.ar    1  UNL1        0.0294
     14 C         139.8175  142.6608  170.4905 C.ar    1  UNL1        0.1401
     15 F         138.9797  143.5264  171.3841 F       1  UNL1       -0.2042
     16 C         139.3446  141.2866  170.1191 C.ar    1  UNL1        0.0294
     17 C         140.1825  140.4210  169.2254 C.ar    1  UNL1        0.0003
     18 C         144.8862  141.5098  163.2671 C.3     1  UNL1        0.1472
     19 O         146.3549  141.6988  163.0284 O.3     1  UNL1       -0.3787
     20 H         146.5143  142.5914  162.6838 H       1  UNL1        0.2108
     21 C         143.9284  142.6255  162.9701 C.ar    1  UNL1        0.0054
     22 C         144.1200  143.9686  163.6097 C.ar    1  UNL1       -0.0007
     23 C         143.1623  145.0842  163.3127 C.ar    1  UNL1        0.0142
     24 C         142.0130  144.8566  162.3761 C.ar    1  UNL1        0.0491
     25 C         141.8214  143.5134  161.7365 C.ar    1  UNL1        0.0108
     26 C         142.7791  142.3979  162.0335 C.ar    1  UNL1       -0.0033
     27 C         140.6720  143.2858  160.7999 C.3     1  UNL1        0.1189
     28 N         139.7143  144.4014  160.5029 N.am    1  UNL1       -0.2846
     29 C         139.9059  145.7446  161.1425 C.2     1  UNL1        0.3047
     30 O         138.9482  146.8602  160.8455 O.2     1  UNL1       -0.2525
     31 N         141.0552  145.9722  162.0791 N.am    1  UNL1       -0.2685
     32 H         138.9600  144.2520  159.8882 H       1  UNL1        0.1513
     33 H         141.1810  146.8538  162.4989 H       1  UNL1        0.1564
@<TRIPOS>BOND
     1     1     2    1
     2     2    18    1
     3    18    19    1
     4    18    21    1
     5    21    22   ar
     6    22    23   ar
     7    23    24   ar
     8    24    25   ar
     9    25    26   ar
    10    25    27    1
    11    27    28    1
    12    28    29   am
    13    29    30    2
    14    29    31   am
    15     2     3    1
    16     3     4    1
    17     4     5    1
    18     5     6    1
    19     6     7    1
    20     6    11    1
    21    11    12   ar
    22    12    13   ar
    23    13    14   ar
    24    14    15    1
    25    14    16   ar
    26    16    17   ar
    27     6     8    1
    28     8     9    1
    29    26    21   ar
    30     9     3    1
    31    31    24    1
    32    17    11   ar
    33    19    20    1
    34    28    32    1
    35    31    33    1
    36     7    10    1
@<TRIPOS>MOLECULE
*****
 33 36 0 0 0
SMALL
GASTEIGER

@<TRIPOS>ATOM
      1 C         142.5151  142.2131  168.5879 C.3     1  UNL1        0.0203
      2 C         142.6949  141.5842  167.2380 C.3     1  UNL1        0.0888
      3 N         142.7802  142.4471  166.0140 N.3     1  UNL1       -0.2713
      4 C         144.0392  143.2071  165.7184 C.3     1  UNL1        0.0749
      5 C         144.1245  144.0700  164.4944 C.3     1  UNL1        0.0485
      6 C         142.9508  144.1729  163.5660 C.3     1  UNL1        0.1096
      7 O         143.9189  145.0778  162.8632 O.3     1  UNL1       -0.3826
      8 C         141.6918  143.4129  163.8616 C.3     1  UNL1        0.0485
      9 C         141.6065  142.5500  165.0856 C.3     1  UNL1        0.0749
     10 H         144.7502  145.1119  163.3620 H       1  UNL1        0.2107
     11 C         142.1133  144.5901  162.3936 C.ar    1  UNL1        0.0019
     12 C         142.4378  144.0801  161.0208 C.ar    1  UNL1        0.0003
     13 C         141.6004  144.4973  159.8483 C.ar    1  UNL1        0.0294
     14 C         140.4384  145.4245  160.0487 C.ar    1  UNL1        0.1401
     15 F         139.6010  145.8416  158.8763 F       1  UNL1       -0.2042
     16 C         140.1139  145.9345  161.4215 C.ar    1  UNL1        0.0294
     17 C         140.9513  145.5173  162.5940 C.ar    1  UNL1        0.0003
     18 C         142.7894  140.0925  167.1121 C.3     1  UNL1        0.1472
     19 O         143.0445  139.2519  168.3279 O.3     1  UNL1       -0.3787
     20 H         143.0762  138.3164  168.0733 H       1  UNL1        0.2108
     21 C         142.6289  139.4414  165.7703 C.ar    1  UNL1        0.0054
     22 C         141.4426  138.5644  165.4993 C.ar    1  UNL1       -0.0007
     23 C         141.2821  137.9133  164.1576 C.ar    1  UNL1        0.0142
     24 C         142.3079  138.1393  163.0868 C.ar    1  UNL1        0.0491
     25 C         143.4942  139.0163  163.3577 C.ar    1  UNL1        0.0108
     26 C         143.6547  139.6674  164.6994 C.ar    1  UNL1       -0.0033
     27 C         144.5200  139.2423  162.2869 C.3     1  UNL1        0.1189
     28 N         144.3595  138.5913  160.9451 N.am    1  UNL1       -0.2846
     29 C         143.1731  137.7142  160.6741 C.2     1  UNL1        0.3047
     30 O         143.0126  137.0631  159.3324 O.2     1  UNL1       -0.2525
     31 N         142.1473  137.4882  161.7450 N.am    1  UNL1       -0.2685
     32 H         145.0327  138.7396  160.2423 H       1  UNL1        0.1513
     33 H         141.3687  136.9126  161.5672 H       1  UNL1        0.1564
@<TRIPOS>BOND
     1     1     2    1
     2     2    18    1
     3    18    19    1
     4    18    21    1
     5    21    22   ar
     6    22    23   ar
     7    23    24   ar
     8    24    25   ar
     9    25    26   ar
    10    25    27    1
    11    27    28    1
    12    28    29   am
    13    29    30    2
    14    29    31   am
    15     2     3    1
    16     3     4    1
    17     4     5    1
    18     5     6    1
    19     6     7    1
    20     6    11    1
    21    11    12   ar
    22    12    13   ar
    23    13    14   ar
    24    14    15    1
    25    14    16   ar
    26    16    17   ar
    27     6     8    1
    28     8     9    1
    29    26    21   ar
    30     9     3    1
    31    31    24    1
    32    17    11   ar
    33    19    20    1
    34    28    32    1
    35    31    33    1
    36     7    10    1
@<TRIPOS>MOLECULE
*****
 33 36 0 0 0
SMALL
GASTEIGER

@<TRIPOS>ATOM
      1 C         145.0173  139.0871  164.5123 C.3     1  UNL1        0.0203
      2 C         143.6399  139.6755  164.4302 C.3     1  UNL1        0.0888
      3 N         143.4161  140.9600  163.6886 N.3     1  UNL1       -0.2713
      4 C         144.1469  142.2026  164.1032 C.3     1  UNL1        0.0749
      5 C         143.9231  143.4871  163.3616 C.3     1  UNL1        0.0485
      6 C         142.9684  143.5290  162.2054 C.3     1  UNL1        0.1096
      7 O         143.4225  144.9586  162.2203 O.3     1  UNL1       -0.3826
      8 C         142.2375  142.2864  161.7908 C.3     1  UNL1        0.0485
      9 C         142.4613  141.0019  162.5324 C.3     1  UNL1        0.0749
     10 H         144.0626  145.0871  162.9376 H       1  UNL1        0.2107
     11 C         142.1713  144.0674  161.0544 C.ar    1  UNL1        0.0019
     12 C         141.0532  145.0356  161.3041 C.ar    1  UNL1        0.0003
     13 C         140.2561  145.5740  160.1532 C.ar    1  UNL1        0.0294
     14 C         140.5773  145.1442  158.7523 C.ar    1  UNL1        0.1401
     15 F         139.7803  145.6827  157.6013 F       1  UNL1       -0.2042
     16 C         141.6955  144.1761  158.5026 C.ar    1  UNL1        0.0294
     17 C         142.4925  143.6377  159.6536 C.ar    1  UNL1        0.0003
     18 C         142.4865  138.9794  165.0897 C.3     1  UNL1        0.1472
     19 O         141.9366  137.7149  164.4991 O.3     1  UNL1       -0.3787
     20 H         141.1996  137.3974  165.0440 H       1  UNL1        0.2108
     21 C         141.8828  139.5478  166.3398 C.ar    1  UNL1        0.0054
     22 C         140.3918  139.6188  166.4874 C.ar    1  UNL1       -0.0007
     23 C         139.7882  140.1872  167.7374 C.ar    1  UNL1        0.0142
     24 C         140.6756  140.6845  168.8398 C.ar    1  UNL1        0.0491
     25 C         142.1666  140.6135  168.6921 C.ar    1  UNL1        0.0108
     26 C         142.7702  140.0451  167.4421 C.ar    1  UNL1       -0.0033
     27 C         143.0540  141.1108  169.7945 C.3     1  UNL1        0.1189
     28 N         142.4504  141.6792  171.0445 N.am    1  UNL1       -0.2846
     29 C         140.9594  141.7502  171.1922 C.2     1  UNL1        0.3047
     30 O         140.3558  142.3186  172.4422 O.2     1  UNL1       -0.2525
     31 N         140.0720  141.2529  170.0899 N.am    1  UNL1       -0.2685
     32 H         143.0329  142.0056  171.7680 H       1  UNL1        0.1513
     33 H         139.0933  141.2995  170.1868 H       1  UNL1        0.1564
@<TRIPOS>BOND
     1     1     2    1
     2     2    18    1
     3    18    19    1
     4    18    21    1
     5    21    22   ar
     6    22    23   ar
     7    23    24   ar
     8    24    25   ar
     9    25    26   ar
    10    25    27    1
    11    27    28    1
    12    28    29   am
    13    29    30    2
    14    29    31   am
    15     2     3    1
    16     3     4    1
    17     4     5    1
    18     5     6    1
    19     6     7    1
    20     6    11    1
    21    11    12   ar
    22    12    13   ar
    23    13    14   ar
    24    14    15    1
    25    14    16   ar
    26    16    17   ar
    27     6     8    1
    28     8     9    1
    29    26    21   ar
    30     9     3    1
    31    31    24    1
    32    17    11   ar
    33    19    20    1
    34    28    32    1
    35    31    33    1
    36     7    10    1
@<TRIPOS>MOLECULE
*****
 33 36 0 0 0
SMALL
GASTEIGER

@<TRIPOS>ATOM
      1 C         138.9066  137.6240  162.8319 C.3     1  UNL1        0.0203
      2 C         140.2509  138.2597  163.0287 C.3     1  UNL1        0.0888
      3 N         140.6277  138.8176  164.3691 N.3     1  UNL1       -0.2713
      4 C         141.9585  138.4816  164.9741 C.3     1  UNL1        0.0749
      5 C         142.3353  139.0395  166.3146 C.3     1  UNL1        0.0485
      6 C         141.3814  139.9334  167.0500 C.3     1  UNL1        0.1096
      7 O         142.5180  139.9043  168.0284 O.3     1  UNL1       -0.3826
      8 C         140.0505  140.2695  166.4449 C.3     1  UNL1        0.0485
      9 C         139.6737  139.7116  165.1045 C.3     1  UNL1        0.0749
     10 H         143.2313  139.3477  167.6789 H       1  UNL1        0.2107
     11 C         140.8221  140.8173  168.1252 C.ar    1  UNL1        0.0019
     12 C         139.8486  140.2617  169.1219 C.ar    1  UNL1        0.0003
     13 C         139.2893  141.1455  170.1971 C.ar    1  UNL1        0.0294
     14 C         139.7037  142.5851  170.2756 C.ar    1  UNL1        0.1401
     15 F         139.1444  143.4689  171.3508 F       1  UNL1       -0.2042
     16 C         140.6772  143.1407  169.2788 C.ar    1  UNL1        0.0294
     17 C         141.2364  142.2568  168.2036 C.ar    1  UNL1        0.0003
     18 C         141.2184  138.3376  161.8850 C.3     1  UNL1        0.1472
     19 O         142.1029  137.1678  161.5700 O.3     1  UNL1       -0.3787
     20 H         142.6633  137.3822  160.8078 H       1  UNL1        0.2108
     21 C         141.3013  139.5852  161.0563 C.ar    1  UNL1        0.0054
     22 C         141.0114  139.5294  159.5857 C.ar    1  UNL1       -0.0007
     23 C         141.0943  140.7770  158.7571 C.ar    1  UNL1        0.0142
     24 C         141.4671  142.0803  159.3991 C.ar    1  UNL1        0.0491
     25 C         141.7570  142.1361  160.8698 C.ar    1  UNL1        0.0108
     26 C         141.6741  140.8886  161.6984 C.ar    1  UNL1       -0.0033
     27 C         142.1299  143.4395  161.5118 C.3     1  UNL1        0.1189
     28 N         142.2128  144.6871  160.6832 N.am    1  UNL1       -0.2846
     29 C         141.9229  144.6313  159.2125 C.2     1  UNL1        0.3047
     30 O         142.0058  145.8789  158.3839 O.2     1  UNL1       -0.2525
     31 N         141.5500  143.3280  158.5704 N.am    1  UNL1       -0.2685
     32 H         142.4575  145.5425  161.1046 H       1  UNL1        0.1513
     33 H         141.3597  143.2913  157.6052 H       1  UNL1        0.1564
@<TRIPOS>BOND
     1     1     2    1
     2     2    18    1
     3    18    19    1
     4    18    21    1
     5    21    22   ar
     6    22    23   ar
     7    23    24   ar
     8    24    25   ar
     9    25    26   ar
    10    25    27    1
    11    27    28    1
    12    28    29   am
    13    29    30    2
    14    29    31   am
    15     2     3    1
    16     3     4    1
    17     4     5    1
    18     5     6    1
    19     6     7    1
    20     6    11    1
    21    11    12   ar
    22    12    13   ar
    23    13    14   ar
    24    14    15    1
    25    14    16   ar
    26    16    17   ar
    27     6     8    1
    28     8     9    1
    29    26    21   ar
    30     9     3    1
    31    31    24    1
    32    17    11   ar
    33    19    20    1
    34    28    32    1
    35    31    33    1
    36     7    10    1
@<TRIPOS>MOLECULE
*****
 33 36 0 0 0
SMALL
GASTEIGER

@<TRIPOS>ATOM
      1 C         145.9662  141.6726  163.9630 C.3     1  UNL1        0.0203
      2 C         144.4765  141.7586  163.8091 C.3     1  UNL1        0.0888
      3 N         143.7413  140.7090  163.0294 N.3     1  UNL1       -0.2713
      4 C         143.2673  139.4611  163.7134 C.3     1  UNL1        0.0749
      5 C         142.5320  138.4115  162.9337 C.3     1  UNL1        0.0485
      6 C         142.2708  138.6099  161.4700 C.3     1  UNL1        0.1096
      7 O         141.6286  137.2691  161.6698 O.3     1  UNL1       -0.3826
      8 C         142.7449  139.8579  160.7860 C.3     1  UNL1        0.0485
      9 C         143.4801  140.9074  161.5657 C.3     1  UNL1        0.0749
     10 H         141.7209  137.0014  162.5976 H       1  UNL1        0.2107
     11 C         141.7866  138.3426  160.0757 C.ar    1  UNL1        0.0019
     12 C         140.3516  138.5944  159.7190 C.ar    1  UNL1        0.0003
     13 C         139.8673  138.3271  158.3247 C.ar    1  UNL1        0.0294
     14 C         140.8182  137.8081  157.2871 C.ar    1  UNL1        0.1401
     15 F         140.3339  137.5409  155.8928 F       1  UNL1       -0.2042
     16 C         142.2532  137.5564  157.6438 C.ar    1  UNL1        0.0294
     17 C         142.7375  137.8237  159.0381 C.ar    1  UNL1        0.0003
     18 C         143.7221  142.8940  164.4348 C.3     1  UNL1        0.1472
     19 O         143.7606  144.2560  163.8076 O.3     1  UNL1       -0.3787
     20 H         143.2243  144.8696  164.3337 H       1  UNL1        0.2108
     21 C         142.9293  142.6675  165.6879 C.ar    1  UNL1        0.0054
     22 C         141.4355  142.5494  165.6193 C.ar    1  UNL1       -0.0007
     23 C         140.6428  142.3229  166.8723 C.ar    1  UNL1        0.0142
     24 C         141.3437  142.2145  168.1940 C.ar    1  UNL1        0.0491
     25 C         142.8375  142.3326  168.2627 C.ar    1  UNL1        0.0108
     26 C         143.6302  142.5591  167.0096 C.ar    1  UNL1       -0.0033
     27 C         143.5384  142.2242  169.5844 C.3     1  UNL1        0.1189
     28 N         142.7457  141.9977  170.8374 N.am    1  UNL1       -0.2846
     29 C         141.2518  141.8796  170.7688 C.2     1  UNL1        0.3047
     30 O         140.4591  141.6531  172.0218 O.2     1  UNL1       -0.2525
     31 N         140.5509  141.9880  169.4471 N.am    1  UNL1       -0.2685
     32 H         143.2057  141.9265  171.7049 H       1  UNL1        0.1513
     33 H         139.5705  141.9105  169.4020 H       1  UNL1        0.1564
@<TRIPOS>BOND
     1     1     2    1
     2     2    18    1
     3    18    19    1
     4    18    21    1
     5    21    22   ar
     6    22    23   ar
     7    23    24   ar
     8    24    25   ar
     9    25    26   ar
    10    25    27    1
    11    27    28    1
    12    28    29   am
    13    29    30    2
    14    29    31   am
    15     2     3    1
    16     3     4    1
    17     4     5    1
    18     5     6    1
    19     6     7    1
    20     6    11    1
    21    11    12   ar
    22    12    13   ar
    23    13    14   ar
    24    14    15    1
    25    14    16   ar
    26    16    17   ar
    27     6     8    1
    28     8     9    1
    29    26    21   ar
    30     9     3    1
    31    31    24    1
    32    17    11   ar
    33    19    20    1
    34    28    32    1
    35    31    33    1
    36     7    10    1
@<TRIPOS>MOLECULE
*****
 33 36 0 0 0
SMALL
GASTEIGER

@<TRIPOS>ATOM
      1 C         144.4240  144.3856  162.4676 C.3     1  UNL1        0.0203
      2 C         144.1966  143.0666  163.1448 C.3     1  UNL1        0.0888
      3 N         143.1130  142.9283  164.1727 N.3     1  UNL1       -0.2713
      4 C         141.8537  143.7336  164.0480 C.3     1  UNL1        0.0749
      5 C         140.7701  143.5953  165.0759 C.3     1  UNL1        0.0485
      6 C         140.9457  142.6516  166.2286 C.3     1  UNL1        0.1096
      7 O         139.5830  143.1948  166.5419 O.3     1  UNL1       -0.3826
      8 C         142.2050  141.8462  166.3534 C.3     1  UNL1        0.0485
      9 C         143.2887  141.9845  165.3254 C.3     1  UNL1        0.0749
     10 H         139.3270  143.8377  165.8622 H       1  UNL1        0.2107
     11 C         140.6481  141.8966  167.4901 C.ar    1  UNL1        0.0019
     12 C         141.2797  142.3186  168.7835 C.ar    1  UNL1        0.0003
     13 C         140.9822  141.5636  170.0450 C.ar    1  UNL1        0.0294
     14 C         140.0529  140.3865  170.0130 C.ar    1  UNL1        0.1401
     15 F         139.7553  139.6315  171.2745 F       1  UNL1       -0.2042
     16 C         139.4212  139.9645  168.7197 C.ar    1  UNL1        0.0294
     17 C         139.7188  140.7195  167.4581 C.ar    1  UNL1        0.0003
     18 C         145.0528  141.8860  162.7942 C.3     1  UNL1        0.1472
     19 O         146.4610  141.8028  163.3043 O.3     1  UNL1       -0.3787
     20 H         146.8716  140.9830  162.9878 H       1  UNL1        0.2108
     21 C         144.5009  140.7884  161.9334 C.ar    1  UNL1        0.0054
     22 C         144.2391  139.4337  162.5216 C.ar    1  UNL1       -0.0007
     23 C         143.6872  138.3363  161.6608 C.ar    1  UNL1        0.0142
     24 C         143.3972  138.5936  160.2118 C.ar    1  UNL1        0.0491
     25 C         143.6590  139.9483  159.6236 C.ar    1  UNL1        0.0108
     26 C         144.2109  141.0457  160.4844 C.ar    1  UNL1       -0.0033
     27 C         143.3690  140.2056  158.1745 C.3     1  UNL1        0.1189
     28 N         142.8171  139.1082  157.3137 N.am    1  UNL1       -0.2846
     29 C         142.5553  137.7533  157.9019 C.2     1  UNL1        0.3047
     30 O         142.0034  136.6559  157.0412 O.2     1  UNL1       -0.2525
     31 N         142.8453  137.4960  159.3510 N.am    1  UNL1       -0.2685
     32 H         142.6268  139.2771  156.3627 H       1  UNL1        0.1513
     33 H         142.6734  136.6069  159.7371 H       1  UNL1        0.1564
@<TRIPOS>BOND
     1     1     2    1
     2     2    18    1
     3    18    19    1
     4    18    21    1
     5    21    22   ar
     6    22    23   ar
     7    23    24   ar
     8    24    25   ar
     9    25    26   ar
    10    25    27    1
    11    27    28    1
    12    28    29   am
    13    29    30    2
    14    29    31   am
    15     2     3    1
    16     3     4    1
    17     4     5    1
    18     5     6    1
    19     6     7    1
    20     6    11    1
    21    11    12   ar
    22    12    13   ar
    23    13    14   ar
    24    14    15    1
    25    14    16   ar
    26    16    17   ar
    27     6     8    1
    28     8     9    1
    29    26    21   ar
    30     9     3    1
    31    31    24    1
    32    17    11   ar
    33    19    20    1
    34    28    32    1
    35    31    33    1
    36     7    10    1
