@<TRIPOS>MOLECULE
*****
 22 24 0 0 0
SMALL
GASTEIGER

@<TRIPOS>ATOM
      1 C         139.8065  140.7006  166.5633 C.ar    1  UNL1        0.0164
      2 C         138.9242  139.5206  166.8451 C.ar    1  UNL1        0.1206
      3 O         138.7843  139.3914  168.3329 O.2     1  UNL1       -0.4580
      4 C         139.5800  140.4915  168.9707 C.ar    1  UNL1        0.1445
      5 C         139.8109  140.8609  170.4060 C.ar    1  UNL1        0.0375
      6 C         140.6736  142.0395  170.7476 C.ar    1  UNL1        0.0031
      7 C         141.3053  142.8486  169.6539 C.ar    1  UNL1        0.0002
      8 C         141.0744  142.4791  168.2186 C.ar    1  UNL1        0.0028
      9 C         140.2118  141.3006  167.8770 C.ar    1  UNL1        0.0335
     10 C         141.4507  140.6565  164.5521 C.3     1  UNL1        0.0111
     11 C         140.2123  141.1939  165.2061 C.3     1  UNL1        0.0652
     12 C         139.3798  142.2246  164.5030 C.ar    1  UNL1        0.0628
     13 C         139.2016  143.5854  165.1085 C.ar    1  UNL1        0.0151
     14 C         138.3691  144.6161  164.4054 C.ar    1  UNL1        0.0028
     15 C         137.7147  144.2861  163.0965 C.ar    1  UNL1        0.0207
     16 C         137.8929  142.9254  162.4910 C.ar    1  UNL1        0.0985
     17 N         138.7254  141.8947  163.1941 N.ar    1  UNL1       -0.2478
     18 C         138.2928  138.6269  165.8192 C.3     1  UNL1        0.0815
     19 C         139.1007  137.5423  165.1703 C.3     1  UNL1        0.0802
     20 N         139.5136  137.6719  163.7341 N.3     1  UNL1       -0.2699
     21 C         138.5617  138.2499  162.7292 C.3     1  UNL1        0.0897
     22 C         140.8785  137.2234  163.3028 C.3     1  UNL1        0.0897
@<TRIPOS>BOND
     1    11    10    1
     2    11    12    1
     3    12    13   ar
     4    13    14   ar
     5    14    15   ar
     6    15    16   ar
     7    16    17   ar
     8    11     1    1
     9     1     2   ar
    10     2    18    1
    11    18    19    1
    12    19    20    1
    13    20    21    1
    14    20    22    1
    15     2     3   ar
    16     3     4   ar
    17     4     5   ar
    18     5     6   ar
    19     6     7   ar
    20     7     8   ar
    21     8     9   ar
    22    17    12   ar
    23     9     1   ar
    24     9     4   ar
@<TRIPOS>MOLECULE
*****
 22 24 0 0 0
SMALL
GASTEIGER

@<TRIPOS>ATOM
      1 C         139.7492  140.4404  165.5563 C.ar    1  UNL1        0.0164
      2 C         138.8456  139.5730  164.7309 C.ar    1  UNL1        0.1206
      3 O         137.8808  140.4650  164.0074 O.2     1  UNL1       -0.4580
      4 C         138.1881  141.8836  164.3856 C.ar    1  UNL1        0.1445
      5 C         137.5656  143.1873  163.9820 C.ar    1  UNL1        0.0375
      6 C         138.0978  144.4757  164.5357 C.ar    1  UNL1        0.0031
      7 C         139.2525  144.4605  165.4930 C.ar    1  UNL1        0.0002
      8 C         139.8750  143.1569  165.8966 C.ar    1  UNL1        0.0028
      9 C         139.3428  141.8684  165.3429 C.ar    1  UNL1        0.0335
     10 C         142.1082  139.3872  165.8325 C.3     1  UNL1        0.0111
     11 C         140.8635  139.9635  166.4400 C.3     1  UNL1        0.0652
     12 C         140.7333  140.0627  167.9309 C.ar    1  UNL1        0.0628
     13 C         139.3787  140.2157  168.5570 C.ar    1  UNL1        0.0151
     14 C         139.2485  140.3150  170.0480 C.ar    1  UNL1        0.0028
     15 C         140.4728  140.2612  170.9130 C.ar    1  UNL1        0.0207
     16 C         141.8273  140.1083  170.2870 C.ar    1  UNL1        0.0985
     17 N         141.9575  140.0090  168.7960 N.ar    1  UNL1       -0.2478
     18 C         138.8978  138.0764  164.6443 C.3     1  UNL1        0.0815
     19 C         138.8765  137.4015  163.3049 C.3     1  UNL1        0.0802
     20 N         139.9020  137.7571  162.2695 N.3     1  UNL1       -0.2699
     21 C         139.4667  138.2472  160.9203 C.3     1  UNL1        0.0897
     22 C         141.3625  137.6226  162.5834 C.3     1  UNL1        0.0897
@<TRIPOS>BOND
     1    11    10    1
     2    11    12    1
     3    12    13   ar
     4    13    14   ar
     5    14    15   ar
     6    15    16   ar
     7    16    17   ar
     8    11     1    1
     9     1     2   ar
    10     2    18    1
    11    18    19    1
    12    19    20    1
    13    20    21    1
    14    20    22    1
    15     2     3   ar
    16     3     4   ar
    17     4     5   ar
    18     5     6   ar
    19     6     7   ar
    20     7     8   ar
    21     8     9   ar
    22    17    12   ar
    23     9     1   ar
    24     9     4   ar
@<TRIPOS>MOLECULE
*****
 22 24 0 0 0
SMALL
GASTEIGER

@<TRIPOS>ATOM
      1 C         139.8641  140.6389  166.5642 C.ar    1  UNL1        0.0164
      2 C         138.9504  139.4886  166.8674 C.ar    1  UNL1        0.1206
      3 O         138.7439  139.4396  168.3523 O.2     1  UNL1       -0.4580
      4 C         139.5300  140.5596  168.9668 C.ar    1  UNL1        0.1445
      5 C         139.7048  141.0003  170.3899 C.ar    1  UNL1        0.0375
      6 C         140.5719  142.1822  170.7079 C.ar    1  UNL1        0.0031
      7 C         141.2642  142.9235  169.6027 C.ar    1  UNL1        0.0002
      8 C         141.0894  142.4828  168.1797 C.ar    1  UNL1        0.0028
      9 C         140.2223  141.3009  167.8617 C.ar    1  UNL1        0.0335
     10 C         139.5224  142.0143  164.3866 C.3     1  UNL1        0.0111
     11 C         140.3366  141.0544  165.2026 C.3     1  UNL1        0.0652
     12 C         141.6233  140.5100  164.6567 C.ar    1  UNL1        0.0628
     13 C         142.5253  139.6946  165.5352 C.ar    1  UNL1        0.0151
     14 C         143.8121  139.1502  164.9894 C.ar    1  UNL1        0.0028
     15 C         144.1968  139.4211  163.5651 C.ar    1  UNL1        0.0207
     16 C         143.2949  140.2365  162.6867 C.ar    1  UNL1        0.0985
     17 N         142.0081  140.7809  163.2325 N.ar    1  UNL1       -0.2478
     18 C         138.3488  138.5517  165.8622 C.3     1  UNL1        0.0815
     19 C         139.2164  137.5542  165.1535 C.3     1  UNL1        0.0802
     20 N         139.5806  137.7659  163.7139 N.3     1  UNL1       -0.2699
     21 C         138.6445  138.5052  162.8044 C.3     1  UNL1        0.0897
     22 C         140.8808  137.2382  163.1838 C.3     1  UNL1        0.0897
@<TRIPOS>BOND
     1    11    10    1
     2    11    12    1
     3    12    13   ar
     4    13    14   ar
     5    14    15   ar
     6    15    16   ar
     7    16    17   ar
     8    11     1    1
     9     1     2   ar
    10     2    18    1
    11    18    19    1
    12    19    20    1
    13    20    21    1
    14    20    22    1
    15     2     3   ar
    16     3     4   ar
    17     4     5   ar
    18     5     6   ar
    19     6     7   ar
    20     7     8   ar
    21     8     9   ar
    22    17    12   ar
    23     9     1   ar
    24     9     4   ar
@<TRIPOS>MOLECULE
*****
 22 24 0 0 0
SMALL
GASTEIGER

@<TRIPOS>ATOM
      1 C         140.4229  139.8008  166.9211 C.ar    1  UNL1        0.0164
      2 C         141.6990  139.3015  166.3109 C.ar    1  UNL1        0.1206
      3 O         142.7764  139.3919  167.3506 O.2     1  UNL1       -0.4580
      4 C         142.1662  139.9470  168.6034 C.ar    1  UNL1        0.1445
      5 C         142.7471  140.2549  169.9516 C.ar    1  UNL1        0.0375
      6 C         141.8734  140.8156  171.0344 C.ar    1  UNL1        0.0031
      7 C         140.4189  141.0683  170.7689 C.ar    1  UNL1        0.0002
      8 C         139.8380  140.7603  169.4207 C.ar    1  UNL1        0.0028
      9 C         140.7116  140.1997  168.3380 C.ar    1  UNL1        0.0335
     10 C         138.0594  138.8226  166.4657 C.3     1  UNL1        0.0111
     11 C         139.0918  139.8862  166.2349 C.3     1  UNL1        0.0652
     12 C         138.7929  141.0350  165.3181 C.ar    1  UNL1        0.0628
     13 C         139.4747  142.3553  165.5232 C.ar    1  UNL1        0.0151
     14 C         139.1758  143.5043  164.6063 C.ar    1  UNL1        0.0028
     15 C         138.1952  143.3329  163.4843 C.ar    1  UNL1        0.0207
     16 C         137.5134  142.0126  163.2791 C.ar    1  UNL1        0.0985
     17 N         137.8123  140.8637  164.1960 N.ar    1  UNL1       -0.2478
     18 C         141.8680  138.8000  164.9073 C.3     1  UNL1        0.0815
     19 C         141.0567  137.6344  164.4246 C.3     1  UNL1        0.0802
     20 N         140.3633  137.7020  163.0962 N.3     1  UNL1       -0.2699
     21 C         138.8668  137.6264  163.0267 C.3     1  UNL1        0.0897
     22 C         141.1663  137.8452  161.8374 C.3     1  UNL1        0.0897
@<TRIPOS>BOND
     1    11    10    1
     2    11    12    1
     3    12    13   ar
     4    13    14   ar
     5    14    15   ar
     6    15    16   ar
     7    16    17   ar
     8    11     1    1
     9     1     2   ar
    10     2    18    1
    11    18    19    1
    12    19    20    1
    13    20    21    1
    14    20    22    1
    15     2     3   ar
    16     3     4   ar
    17     4     5   ar
    18     5     6   ar
    19     6     7   ar
    20     7     8   ar
    21     8     9   ar
    22    17    12   ar
    23     9     1   ar
    24     9     4   ar
@<TRIPOS>MOLECULE
*****
 22 24 0 0 0
SMALL
GASTEIGER

@<TRIPOS>ATOM
      1 C         140.6023  140.6823  165.5116 C.ar    1  UNL1        0.0164
      2 C         139.8071  139.5447  164.9429 C.ar    1  UNL1        0.1206
      3 O         138.5326  140.1041  164.3835 O.2     1  UNL1       -0.4580
      4 C         138.5402  141.5874  164.6065 C.ar    1  UNL1        0.1445
      5 C         137.5475  142.6588  164.2648 C.ar    1  UNL1        0.0375
      6 C         137.8341  144.0875  164.6203 C.ar    1  UNL1        0.0031
      7 C         139.1132  144.4450  165.3175 C.ar    1  UNL1        0.0002
      8 C         140.1058  143.3736  165.6592 C.ar    1  UNL1        0.0028
      9 C         139.8193  141.9448  165.3037 C.ar    1  UNL1        0.0335
     10 C         142.0453  140.1204  167.5978 C.3     1  UNL1        0.0111
     11 C         141.9448  140.5762  166.1722 C.3     1  UNL1        0.0652
     12 C         143.1868  140.9259  165.4074 C.ar    1  UNL1        0.0628
     13 C         143.6489  142.3513  165.3385 C.ar    1  UNL1        0.0151
     14 C         144.8909  142.7011  164.5737 C.ar    1  UNL1        0.0028
     15 C         145.6710  141.6254  163.8777 C.ar    1  UNL1        0.0207
     16 C         145.2089  140.2000  163.9465 C.ar    1  UNL1        0.0985
     17 N         143.9669  139.8502  164.7113 N.ar    1  UNL1       -0.2478
     18 C         140.2148  138.1012  164.9349 C.3     1  UNL1        0.0815
     19 C         140.1013  137.2968  163.6740 C.3     1  UNL1        0.0802
     20 N         140.6120  137.8559  162.3791 N.3     1  UNL1       -0.2699
     21 C         139.6471  138.2567  161.3028 C.3     1  UNL1        0.0897
     22 C         142.0875  138.0142  162.1606 C.3     1  UNL1        0.0897
@<TRIPOS>BOND
     1    11    10    1
     2    11    12    1
     3    12    13   ar
     4    13    14   ar
     5    14    15   ar
     6    15    16   ar
     7    16    17   ar
     8    11     1    1
     9     1     2   ar
    10     2    18    1
    11    18    19    1
    12    19    20    1
    13    20    21    1
    14    20    22    1
    15     2     3   ar
    16     3     4   ar
    17     4     5   ar
    18     5     6   ar
    19     6     7   ar
    20     7     8   ar
    21     8     9   ar
    22    17    12   ar
    23     9     1   ar
    24     9     4   ar
@<TRIPOS>MOLECULE
*****
 22 24 0 0 0
SMALL
GASTEIGER

@<TRIPOS>ATOM
      1 C         142.9181  138.9633  164.9818 C.ar    1  UNL1        0.0164
      2 C         143.7887  139.6117  163.9466 C.ar    1  UNL1        0.1206
      3 O         143.0496  139.5925  162.6414 O.2     1  UNL1       -0.4580
      4 C         141.7222  138.9323  162.8700 C.ar    1  UNL1        0.1445
      5 C         140.5771  138.6351  161.9480 C.ar    1  UNL1        0.0375
      6 C         139.3507  137.9489  162.4724 C.ar    1  UNL1        0.0031
      7 C         139.2694  137.5600  163.9188 C.ar    1  UNL1        0.0002
      8 C         140.4145  137.8572  164.8408 C.ar    1  UNL1        0.0028
      9 C         141.6410  138.5434  164.3165 C.ar    1  UNL1        0.0335
     10 C         144.1227  137.6117  166.8453 C.3     1  UNL1        0.0111
     11 C         143.2639  138.7688  166.4284 C.3     1  UNL1        0.0652
     12 C         142.7511  139.7314  167.4580 C.ar    1  UNL1        0.0628
     13 C         142.1432  141.0342  167.0300 C.ar    1  UNL1        0.0151
     14 C         141.6304  141.9969  168.0597 C.ar    1  UNL1        0.0028
     15 C         141.7255  141.6567  169.5175 C.ar    1  UNL1        0.0207
     16 C         142.3333  140.3540  169.9456 C.ar    1  UNL1        0.0985
     17 N         142.8462  139.3913  168.9159 N.ar    1  UNL1       -0.2478
     18 C         145.1580  140.1795  164.1762 C.3     1  UNL1        0.0815
     19 C         145.5854  141.4223  163.4532 C.3     1  UNL1        0.0802
     20 N         144.8182  142.6981  163.6366 N.3     1  UNL1       -0.2699
     21 C         144.4691  143.1715  165.0165 C.3     1  UNL1        0.0897
     22 C         144.4001  143.5004  162.4402 C.3     1  UNL1        0.0897
@<TRIPOS>BOND
     1    11    10    1
     2    11    12    1
     3    12    13   ar
     4    13    14   ar
     5    14    15   ar
     6    15    16   ar
     7    16    17   ar
     8    11     1    1
     9     1     2   ar
    10     2    18    1
    11    18    19    1
    12    19    20    1
    13    20    21    1
    14    20    22    1
    15     2     3   ar
    16     3     4   ar
    17     4     5   ar
    18     5     6   ar
    19     6     7   ar
    20     7     8   ar
    21     8     9   ar
    22    17    12   ar
    23     9     1   ar
    24     9     4   ar
@<TRIPOS>MOLECULE
*****
 22 24 0 0 0
SMALL
GASTEIGER

@<TRIPOS>ATOM
      1 C         140.3433  141.6343  165.3378 C.ar    1  UNL1        0.0164
      2 C         139.3691  140.4952  165.2780 C.ar    1  UNL1        0.1206
      3 O         138.1926  140.9340  164.4575 O.2     1  UNL1       -0.4580
      4 C         138.4396  142.3443  164.0102 C.ar    1  UNL1        0.1445
      5 C         137.6259  143.2903  163.1778 C.ar    1  UNL1        0.0375
      6 C         138.1414  144.6691  162.8894 C.ar    1  UNL1        0.0031
      7 C         139.4706  145.1019  163.4334 C.ar    1  UNL1        0.0002
      8 C         140.2843  144.1559  164.2658 C.ar    1  UNL1        0.0028
      9 C         139.7688  142.7771  164.5542 C.ar    1  UNL1        0.0335
     10 C         142.8857  141.1002  165.3713 C.3     1  UNL1        0.0111
     11 C         141.6606  141.6311  166.0551 C.3     1  UNL1        0.0652
     12 C         141.7530  142.1588  167.4561 C.ar    1  UNL1        0.0628
     13 C         140.5726  142.8433  168.0791 C.ar    1  UNL1        0.0151
     14 C         140.6649  143.3711  169.4802 C.ar    1  UNL1        0.0028
     15 C         141.9378  143.2143  170.2583 C.ar    1  UNL1        0.0207
     16 C         143.1181  142.5298  169.6353 C.ar    1  UNL1        0.0985
     17 N         143.0258  142.0020  168.2342 N.ar    1  UNL1       -0.2478
     18 C         139.5413  139.1530  165.9251 C.3     1  UNL1        0.0815
     19 C         139.1212  137.9102  165.1978 C.3     1  UNL1        0.0802
     20 N         139.6004  137.6622  163.7982 N.3     1  UNL1       -0.2699
     21 C         138.6622  137.8406  162.6415 C.3     1  UNL1        0.0897
     22 C         141.0178  137.2356  163.5553 C.3     1  UNL1        0.0897
@<TRIPOS>BOND
     1    11    10    1
     2    11    12    1
     3    12    13   ar
     4    13    14   ar
     5    14    15   ar
     6    15    16   ar
     7    16    17   ar
     8    11     1    1
     9     1     2   ar
    10     2    18    1
    11    18    19    1
    12    19    20    1
    13    20    21    1
    14    20    22    1
    15     2     3   ar
    16     3     4   ar
    17     4     5   ar
    18     5     6   ar
    19     6     7   ar
    20     7     8   ar
    21     8     9   ar
    22    17    12   ar
    23     9     1   ar
    24     9     4   ar
@<TRIPOS>MOLECULE
*****
 22 24 0 0 0
SMALL
GASTEIGER

@<TRIPOS>ATOM
      1 C         139.7756  141.7606  166.3510 C.ar    1  UNL1        0.0164
      2 C         139.3487  140.3551  166.0472 C.ar    1  UNL1        0.1206
      3 O         139.4116  139.5660  167.3213 O.2     1  UNL1       -0.4580
      4 C         139.8773  140.4838  168.4125 C.ar    1  UNL1        0.1445
      5 C         140.1257  140.2597  169.8747 C.ar    1  UNL1        0.0375
      6 C         140.5989  141.3919  170.7372 C.ar    1  UNL1        0.0031
      7 C         140.8239  142.7483  170.1375 C.ar    1  UNL1        0.0002
      8 C         140.5755  142.9724  168.6753 C.ar    1  UNL1        0.0028
      9 C         140.1023  141.8402  167.8128 C.ar    1  UNL1        0.0335
     10 C         138.6070  143.4816  164.7944 C.3     1  UNL1        0.0111
     11 C         139.8608  142.8886  165.3659 C.3     1  UNL1        0.0652
     12 C         141.1996  143.4237  164.9523 C.ar    1  UNL1        0.0628
     13 C         142.4522  142.7033  165.3550 C.ar    1  UNL1        0.0151
     14 C         143.7911  143.2383  164.9414 C.ar    1  UNL1        0.0028
     15 C         143.8774  144.4939  164.1251 C.ar    1  UNL1        0.0207
     16 C         142.6249  145.2143  163.7225 C.ar    1  UNL1        0.0985
     17 N         141.2860  144.6792  164.1361 N.ar    1  UNL1       -0.2478
     18 C         138.9321  139.8308  164.7050 C.3     1  UNL1        0.0815
     19 C         138.9807  138.3576  164.4272 C.3     1  UNL1        0.0802
     20 N         139.7803  137.8386  163.2691 N.3     1  UNL1       -0.2699
     21 C         139.2654  138.0009  161.8695 C.3     1  UNL1        0.0897
     22 C         141.0947  137.1575  163.5104 C.3     1  UNL1        0.0897
@<TRIPOS>BOND
     1    11    10    1
     2    11    12    1
     3    12    13   ar
     4    13    14   ar
     5    14    15   ar
     6    15    16   ar
     7    16    17   ar
     8    11     1    1
     9     1     2   ar
    10     2    18    1
    11    18    19    1
    12    19    20    1
    13    20    21    1
    14    20    22    1
    15     2     3   ar
    16     3     4   ar
    17     4     5   ar
    18     5     6   ar
    19     6     7   ar
    20     7     8   ar
    21     8     9   ar
    22    17    12   ar
    23     9     1   ar
    24     9     4   ar
@<TRIPOS>MOLECULE
*****
 22 24 0 0 0
SMALL
GASTEIGER

@<TRIPOS>ATOM
      1 C         140.3846  139.7319  166.8423 C.ar    1  UNL1        0.0164
      2 C         141.6709  139.3106  166.1958 C.ar    1  UNL1        0.1206
      3 O         142.7673  139.4525  167.2095 O.2     1  UNL1       -0.4580
      4 C         142.1587  139.9616  168.4825 C.ar    1  UNL1        0.1445
      5 C         142.7552  140.2902  169.8190 C.ar    1  UNL1        0.0375
      6 C         141.8791  140.7915  170.9285 C.ar    1  UNL1        0.0031
      7 C         140.4064  140.9641  170.7015 C.ar    1  UNL1        0.0002
      8 C         139.8099  140.6356  169.3650 C.ar    1  UNL1        0.0028
      9 C         140.6861  140.1343  168.2556 C.ar    1  UNL1        0.0335
     10 C         138.0276  138.6866  166.5228 C.3     1  UNL1        0.0111
     11 C         139.0339  139.7481  166.1901 C.3     1  UNL1        0.0652
     12 C         138.6895  140.8257  165.2052 C.ar    1  UNL1        0.0628
     13 C         139.2480  142.2070  165.3789 C.ar    1  UNL1        0.0151
     14 C         138.9035  143.2846  164.3940 C.ar    1  UNL1        0.0028
     15 C         138.0006  142.9810  163.2353 C.ar    1  UNL1        0.0207
     16 C         137.4421  141.5997  163.0616 C.ar    1  UNL1        0.0985
     17 N         137.7865  140.5221  164.0465 N.ar    1  UNL1       -0.2478
     18 C         141.8323  138.8314  164.7836 C.3     1  UNL1        0.0815
     19 C         142.2901  139.7815  163.7170 C.3     1  UNL1        0.0802
     20 N         143.6273  140.4512  163.8327 N.3     1  UNL1       -0.2699
     21 C         143.7522  141.9248  163.5815 C.3     1  UNL1        0.0897
     22 C         144.8394  139.6475  164.1995 C.3     1  UNL1        0.0897
@<TRIPOS>BOND
     1    11    10    1
     2    11    12    1
     3    12    13   ar
     4    13    14   ar
     5    14    15   ar
     6    15    16   ar
     7    16    17   ar
     8    11     1    1
     9     1     2   ar
    10     2    18    1
    11    18    19    1
    12    19    20    1
    13    20    21    1
    14    20    22    1
    15     2     3   ar
    16     3     4   ar
    17     4     5   ar
    18     5     6   ar
    19     6     7   ar
    20     7     8   ar
    21     8     9   ar
    22    17    12   ar
    23     9     1   ar
    24     9     4   ar
