@<TRIPOS>MOLECULE
*****
 34 38 0 0 0
SMALL
GASTEIGER

@<TRIPOS>ATOM
      1 C         141.4986  138.5841  161.7278 C.ar    1  UNL1        0.0541
      2 C         142.7285  137.7605  161.4852 C.ar    1  UNL1        0.0180
      3 C         143.1605  137.4529  160.0820 C.ar    1  UNL1        0.0382
      4 C         142.3626  137.9691  158.9215 C.ar    1  UNL1        0.1385
      5 C         141.1326  138.7927  159.1641 C.ar    1  UNL1        0.0382
      6 C         140.7006  139.1002  160.5672 C.ar    1  UNL1        0.0180
      7 O         138.4988  139.2289  167.8789 O.2     1  UNL1       -0.2699
      8 C         139.7705  139.8143  167.3403 C.2     1  UNL1        0.2494
      9 N         140.2025  139.5068  165.9372 N.am    1  UNL1       -0.2660
     10 C         141.4743  140.0922  165.3987 C.3     1  UNL1        0.1160
     11 C         141.9062  139.7846  163.9955 C.3     1  UNL1        0.1197
     12 N         141.0665  138.8916  163.1309 N.am    1  UNL1       -0.2555
     13 C         139.7948  138.3062  163.6695 C.2     1  UNL1        0.2497
     14 O         138.9551  137.4133  162.8049 O.2     1  UNL1       -0.2727
     15 C         139.3628  138.6138  165.0726 C.3     1  UNL1        0.1799
     16 C         140.6102  140.7073  168.2049 C.ar    1  UNL1        0.0536
     17 C         141.7438  140.1310  169.0004 C.ar    1  UNL1        0.0054
     18 C         142.5835  141.0239  169.8650 C.ar    1  UNL1        0.0115
     19 C         142.2895  142.4932  169.9341 C.ar    1  UNL1        0.0577
     20 CL        143.1292  143.3862  170.7987 Cl      1  UNL1       -0.0822
     21 C         141.1559  143.0695  169.1386 C.ar    1  UNL1        0.0115
     22 C         140.3163  142.1766  168.2741 C.ar    1  UNL1        0.0054
     23 O         142.7946  137.6615  157.5184 O.3     1  UNL1       -0.4791
     24 C         142.5077  136.3148  156.9235 C.3     1  UNL1        0.1687
     25 C         143.2834  135.1138  157.3770 C.3     1  UNL1        0.0609
     26 C         142.9965  133.7671  156.7821 C.3     1  UNL1        0.0758
     27 N         141.9339  133.6213  155.7335 N.3     1  UNL1       -0.2737
     28 C         141.1580  134.8223  155.2799 C.3     1  UNL1        0.0758
     29 C         141.4449  136.1691  155.8749 C.3     1  UNL1        0.0609
     30 C         141.6469  132.2746  155.1386 C.3     1  UNL1        0.0575
     31 C         142.0849  130.9528  155.6965 C.3     1  UNL1        0.0160
     32 C         141.5803  129.8745  154.7839 C.3     1  UNL1        0.0014
     33 C         140.8306  130.5298  153.6621 C.3     1  UNL1        0.0014
     34 C         140.8718  132.0131  153.8813 C.3     1  UNL1        0.0160
@<TRIPOS>BOND
     1     7     8    2
     2     8    16    1
     3    16    17   ar
     4    17    18   ar
     5    18    19   ar
     6    19    20    1
     7    19    21   ar
     8    21    22   ar
     9     8     9   am
    10     9    10    1
    11    10    11    1
    12    11    12    1
    13    12     1    1
    14     1     2   ar
    15     2     3   ar
    16     3     4   ar
    17     4    23    1
    18    23    24    1
    19    24    25    1
    20    25    26    1
    21    26    27    1
    22    27    30    1
    23    30    31    1
    24    31    32    1
    25    32    33    1
    26    33    34    1
    27    27    28    1
    28    28    29    1
    29     4     5   ar
    30     5     6   ar
    31    12    13   am
    32    13    14    2
    33    13    15    1
    34    22    16   ar
    35    15     9    1
    36     6     1   ar
    37    29    24    1
    38    34    30    1
@<TRIPOS>MOLECULE
*****
 34 38 0 0 0
SMALL
GASTEIGER

@<TRIPOS>ATOM
      1 C         141.1303  138.9142  162.0345 C.ar    1  UNL1        0.0541
      2 C         142.2665  138.0023  161.6776 C.ar    1  UNL1        0.0180
      3 C         142.5842  137.7281  160.2374 C.ar    1  UNL1        0.0382
      4 C         141.7657  138.3659  159.1543 C.ar    1  UNL1        0.1385
      5 C         140.6295  139.2778  159.5112 C.ar    1  UNL1        0.0382
      6 C         140.3117  139.5519  160.9513 C.ar    1  UNL1        0.0180
      7 O         138.6667  139.3652  168.4358 O.2     1  UNL1       -0.2699
      8 C         139.8594  140.0108  167.7949 C.2     1  UNL1        0.2494
      9 N         140.1771  139.7366  166.3548 N.am    1  UNL1       -0.2660
     10 C         141.3697  140.3822  165.7138 C.3     1  UNL1        0.1160
     11 C         141.6875  140.1080  164.2737 C.3     1  UNL1        0.1197
     12 N         140.8125  139.1883  163.4746 N.am    1  UNL1       -0.2555
     13 C         139.6199  138.5428  164.1156 C.2     1  UNL1        0.2497
     14 O         138.7449  137.6231  163.3164 O.2     1  UNL1       -0.2727
     15 C         139.3021  138.8169  165.5556 C.3     1  UNL1        0.1799
     16 C         140.7343  140.9305  168.5941 C.ar    1  UNL1        0.0536
     17 C         142.0030  140.4150  169.2060 C.ar    1  UNL1        0.0054
     18 C         142.8779  141.3348  170.0051 C.ar    1  UNL1        0.0115
     19 C         142.4840  142.7700  170.1923 C.ar    1  UNL1        0.0577
     20 CL        143.3590  143.6897  170.9915 Cl      1  UNL1       -0.0822
     21 C         141.2153  143.2854  169.5804 C.ar    1  UNL1        0.0115
     22 C         140.3404  142.3657  168.7813 C.ar    1  UNL1        0.0054
     23 O         142.0834  138.0917  157.7142 O.3     1  UNL1       -0.4791
     24 C         143.1861  138.8464  157.0326 C.3     1  UNL1        0.1687
     25 C         143.7403  138.3508  155.7299 C.3     1  UNL1        0.0609
     26 C         144.8430  139.1055  155.0483 C.3     1  UNL1        0.0758
     27 N         145.3915  140.3558  155.6695 N.3     1  UNL1       -0.2737
     28 C         144.8373  140.8514  156.9723 C.3     1  UNL1        0.0758
     29 C         143.7346  140.0968  157.6539 C.3     1  UNL1        0.0609
     30 C         146.4942  141.1104  154.9879 C.3     1  UNL1        0.0575
     31 C         146.6322  141.3263  153.5098 C.3     1  UNL1        0.0160
     32 C         147.8758  142.1311  153.2732 C.3     1  UNL1        0.0014
     33 C         148.5063  142.4125  154.6048 C.3     1  UNL1        0.0014
     34 C         147.6524  141.7817  155.6645 C.3     1  UNL1        0.0160
@<TRIPOS>BOND
     1     7     8    2
     2     8    16    1
     3    16    17   ar
     4    17    18   ar
     5    18    19   ar
     6    19    20    1
     7    19    21   ar
     8    21    22   ar
     9     8     9   am
    10     9    10    1
    11    10    11    1
    12    11    12    1
    13    12     1    1
    14     1     2   ar
    15     2     3   ar
    16     3     4   ar
    17     4    23    1
    18    23    24    1
    19    24    25    1
    20    25    26    1
    21    26    27    1
    22    27    30    1
    23    30    31    1
    24    31    32    1
    25    32    33    1
    26    33    34    1
    27    27    28    1
    28    28    29    1
    29     4     5   ar
    30     5     6   ar
    31    12    13   am
    32    13    14    2
    33    13    15    1
    34    22    16   ar
    35    15     9    1
    36     6     1   ar
    37    29    24    1
    38    34    30    1
@<TRIPOS>MOLECULE
*****
 34 38 0 0 0
SMALL
GASTEIGER

@<TRIPOS>ATOM
      1 C         140.8737  139.8559  160.4565 C.ar    1  UNL1        0.0541
      2 C         139.7647  138.9902  159.9363 C.ar    1  UNL1        0.0180
      3 C         139.8912  138.3363  158.5922 C.ar    1  UNL1        0.0382
      4 C         141.1266  138.5482  157.7684 C.ar    1  UNL1        0.1385
      5 C         142.2356  139.4139  158.2886 C.ar    1  UNL1        0.0382
      6 C         142.1092  140.0678  159.6326 C.ar    1  UNL1        0.0180
      7 O         139.6050  143.7551  165.9734 O.2     1  UNL1       -0.2699
      8 C         140.3681  142.4714  165.8326 C.2     1  UNL1        0.2494
      9 N         140.4945  141.8176  164.4886 N.am    1  UNL1       -0.2660
     10 C         141.2576  140.5339  164.3479 C.3     1  UNL1        0.1160
     11 C         141.3840  139.8800  163.0038 C.3     1  UNL1        0.1197
     12 N         140.7473  140.5098  161.8005 N.am    1  UNL1       -0.2555
     13 C         139.9842  141.7935  161.9412 C.2     1  UNL1        0.2497
     14 O         139.3475  142.4233  160.7380 O.2     1  UNL1       -0.2727
     15 C         139.8578  142.4474  163.2853 C.3     1  UNL1        0.1799
     16 C         141.0048  141.8416  167.0360 C.ar    1  UNL1        0.0536
     17 C         140.2692  140.7867  167.8080 C.ar    1  UNL1        0.0054
     18 C         140.9059  140.1570  169.0113 C.ar    1  UNL1        0.0115
     19 C         142.2782  140.5822  169.4426 C.ar    1  UNL1        0.0577
     20 CL        142.9150  139.9523  170.6460 Cl      1  UNL1       -0.0822
     21 C         143.0138  141.6371  168.6706 C.ar    1  UNL1        0.0115
     22 C         142.3771  142.2668  167.4673 C.ar    1  UNL1        0.0054
     23 O         141.2531  137.8943  156.4244 O.3     1  UNL1       -0.4791
     24 C         141.7541  136.4843  156.3205 C.3     1  UNL1        0.1687
     25 C         142.9345  136.0458  157.1354 C.3     1  UNL1        0.0609
     26 C         143.4355  134.6357  157.0314 C.3     1  UNL1        0.0758
     27 N         142.7560  133.6642  156.1126 N.3     1  UNL1       -0.2737
     28 C         141.5755  134.1026  155.2976 C.3     1  UNL1        0.0758
     29 C         141.0745  135.5127  155.4015 C.3     1  UNL1        0.0609
     30 C         143.2570  132.2542  156.0087 C.3     1  UNL1        0.0575
     31 C         142.4076  131.0212  155.9158 C.3     1  UNL1        0.0160
     32 C         143.3211  129.8346  155.8291 C.3     1  UNL1        0.0014
     33 C         144.7349  130.3340  155.8684 C.3     1  UNL1        0.0014
     34 C         144.6953  131.8294  155.9794 C.3     1  UNL1        0.0160
@<TRIPOS>BOND
     1     7     8    2
     2     8    16    1
     3    16    17   ar
     4    17    18   ar
     5    18    19   ar
     6    19    20    1
     7    19    21   ar
     8    21    22   ar
     9     8     9   am
    10     9    10    1
    11    10    11    1
    12    11    12    1
    13    12     1    1
    14     1     2   ar
    15     2     3   ar
    16     3     4   ar
    17     4    23    1
    18    23    24    1
    19    24    25    1
    20    25    26    1
    21    26    27    1
    22    27    30    1
    23    30    31    1
    24    31    32    1
    25    32    33    1
    26    33    34    1
    27    27    28    1
    28    28    29    1
    29     4     5   ar
    30     5     6   ar
    31    12    13   am
    32    13    14    2
    33    13    15    1
    34    22    16   ar
    35    15     9    1
    36     6     1   ar
    37    29    24    1
    38    34    30    1
@<TRIPOS>MOLECULE
*****
 34 38 0 0 0
SMALL
GASTEIGER

@<TRIPOS>ATOM
      1 C         139.8350  141.4004  161.4985 C.ar    1  UNL1        0.0541
      2 C         140.5835  140.4663  160.5945 C.ar    1  UNL1        0.0180
      3 C         140.5820  140.6954  159.1120 C.ar    1  UNL1        0.0382
      4 C         139.8320  141.8585  158.5336 C.ar    1  UNL1        0.1385
      5 C         139.0835  142.7926  159.4376 C.ar    1  UNL1        0.0382
      6 C         139.0850  142.5636  160.9200 C.ar    1  UNL1        0.0180
      7 O         138.9200  139.4650  168.0304 O.2     1  UNL1       -0.2699
      8 C         139.8409  140.4843  167.4281 C.2     1  UNL1        0.2494
      9 N         139.8394  140.7134  165.9457 N.am    1  UNL1       -0.2660
     10 C         140.7603  141.7327  165.3434 C.3     1  UNL1        0.1160
     11 C         140.7588  141.9617  163.8609 C.3     1  UNL1        0.1197
     12 N         139.8365  141.1714  162.9808 N.am    1  UNL1       -0.2555
     13 C         138.9155  140.1520  163.5832 C.2     1  UNL1        0.2497
     14 O         137.9932  139.3617  162.7031 O.2     1  UNL1       -0.2727
     15 C         138.9170  139.9230  165.0655 C.3     1  UNL1        0.1799
     16 C         140.7633  141.2747  168.3082 C.ar    1  UNL1        0.0536
     17 C         140.2919  142.5556  168.9303 C.ar    1  UNL1        0.0054
     18 C         141.2143  143.3459  169.8104 C.ar    1  UNL1        0.0115
     19 C         142.6081  142.8553  170.0684 C.ar    1  UNL1        0.0577
     20 CL        143.5305  143.6456  170.9485 Cl      1  UNL1       -0.0822
     21 C         143.0795  141.5744  169.4463 C.ar    1  UNL1        0.0115
     22 C         142.1571  140.7841  168.5662 C.ar    1  UNL1        0.0054
     23 O         139.8306  142.0876  157.0512 O.3     1  UNL1       -0.4791
     24 C         139.7909  143.4853  156.5083 C.3     1  UNL1        0.1687
     25 C         138.5081  144.0437  155.9675 C.3     1  UNL1        0.0609
     26 C         138.4684  145.4414  155.4246 C.3     1  UNL1        0.0758
     27 N         139.7115  146.2808  155.4225 N.3     1  UNL1       -0.2737
     28 C         140.9944  145.7224  155.9633 C.3     1  UNL1        0.0758
     29 C         141.0341  144.3247  156.5062 C.3     1  UNL1        0.0609
     30 C         139.6718  147.6785  154.8795 C.3     1  UNL1        0.0575
     31 C         140.3548  148.1603  153.6339 C.3     1  UNL1        0.0160
     32 C         140.0472  149.6194  153.4715 C.3     1  UNL1        0.0014
     33 C         139.1741  150.0394  154.6166 C.3     1  UNL1        0.0014
     34 C         138.9421  148.8399  155.4868 C.3     1  UNL1        0.0160
@<TRIPOS>BOND
     1     7     8    2
     2     8    16    1
     3    16    17   ar
     4    17    18   ar
     5    18    19   ar
     6    19    20    1
     7    19    21   ar
     8    21    22   ar
     9     8     9   am
    10     9    10    1
    11    10    11    1
    12    11    12    1
    13    12     1    1
    14     1     2   ar
    15     2     3   ar
    16     3     4   ar
    17     4    23    1
    18    23    24    1
    19    24    25    1
    20    25    26    1
    21    26    27    1
    22    27    30    1
    23    30    31    1
    24    31    32    1
    25    32    33    1
    26    33    34    1
    27    27    28    1
    28    28    29    1
    29     4     5   ar
    30     5     6   ar
    31    12    13   am
    32    13    14    2
    33    13    15    1
    34    22    16   ar
    35    15     9    1
    36     6     1   ar
    37    29    24    1
    38    34    30    1
@<TRIPOS>MOLECULE
*****
 34 38 0 0 0
SMALL
GASTEIGER

@<TRIPOS>ATOM
      1 C         140.7038  138.5320  158.5929 C.ar    1  UNL1        0.0541
      2 C         139.8875  137.7732  157.5889 C.ar    1  UNL1        0.0180
      3 C         140.5534  137.1501  156.3979 C.ar    1  UNL1        0.0382
      4 C         142.0355  137.2858  156.2110 C.ar    1  UNL1        0.1385
      5 C         142.8517  138.0446  157.2149 C.ar    1  UNL1        0.0382
      6 C         142.1860  138.6677  158.4059 C.ar    1  UNL1        0.0180
      7 O         136.8494  141.9163  163.1688 O.2     1  UNL1       -0.2699
      8 C         138.0406  141.0244  163.3568 C.2     1  UNL1        0.2494
      9 N         138.7064  140.4013  162.1659 N.am    1  UNL1       -0.2660
     10 C         139.8977  139.5094  162.3539 C.3     1  UNL1        0.1160
     11 C         140.5635  138.8863  161.1628 C.3     1  UNL1        0.1197
     12 N         140.0380  139.1551  159.7839 N.am    1  UNL1       -0.2555
     13 C         138.8467  140.0470  159.5959 C.2     1  UNL1        0.2497
     14 O         138.3212  140.3158  158.2169 O.2     1  UNL1       -0.2727
     15 C         138.1809  140.6701  160.7868 C.3     1  UNL1        0.1799
     16 C         138.5661  140.7556  164.7359 C.ar    1  UNL1        0.0536
     17 C         139.5337  141.7110  165.3692 C.ar    1  UNL1        0.0054
     18 C         140.0591  141.4421  166.7482 C.ar    1  UNL1        0.0115
     19 C         139.6170  140.2180  167.4938 C.ar    1  UNL1        0.0577
     20 CL        140.1425  139.9492  168.8729 Cl      1  UNL1       -0.0822
     21 C         138.6494  139.2627  166.8605 C.ar    1  UNL1        0.0115
     22 C         138.1240  139.5315  165.4815 C.ar    1  UNL1        0.0054
     23 O         142.7013  136.6627  155.0200 O.3     1  UNL1       -0.4791
     24 C         142.9397  135.1822  154.9832 C.3     1  UNL1        0.1687
     25 C         142.3589  134.3563  153.8739 C.3     1  UNL1        0.0609
     26 C         142.5973  132.8758  153.8372 C.3     1  UNL1        0.0758
     27 N         143.4165  132.2212  154.9097 N.3     1  UNL1       -0.2737
     28 C         143.9973  133.0471  156.0191 C.3     1  UNL1        0.0758
     29 C         143.7589  134.5276  156.0559 C.3     1  UNL1        0.0609
     30 C         143.6549  130.7408  154.8730 C.3     1  UNL1        0.0575
     31 C         142.6720  129.7003  154.4239 C.3     1  UNL1        0.0160
     32 C         143.3278  128.3573  154.5522 C.3     1  UNL1        0.0014
     33 C         144.7158  128.5677  155.0805 C.3     1  UNL1        0.0014
     34 C         144.9180  130.0408  155.2787 C.3     1  UNL1        0.0160
@<TRIPOS>BOND
     1     7     8    2
     2     8    16    1
     3    16    17   ar
     4    17    18   ar
     5    18    19   ar
     6    19    20    1
     7    19    21   ar
     8    21    22   ar
     9     8     9   am
    10     9    10    1
    11    10    11    1
    12    11    12    1
    13    12     1    1
    14     1     2   ar
    15     2     3   ar
    16     3     4   ar
    17     4    23    1
    18    23    24    1
    19    24    25    1
    20    25    26    1
    21    26    27    1
    22    27    30    1
    23    30    31    1
    24    31    32    1
    25    32    33    1
    26    33    34    1
    27    27    28    1
    28    28    29    1
    29     4     5   ar
    30     5     6   ar
    31    12    13   am
    32    13    14    2
    33    13    15    1
    34    22    16   ar
    35    15     9    1
    36     6     1   ar
    37    29    24    1
    38    34    30    1
@<TRIPOS>MOLECULE
*****
 34 38 0 0 0
SMALL
GASTEIGER

@<TRIPOS>ATOM
      1 C         142.7329  140.6476  159.5144 C.ar    1  UNL1        0.0541
      2 C         141.5441  141.5184  159.7947 C.ar    1  UNL1        0.0180
      3 C         141.5917  142.5148  160.9150 C.ar    1  UNL1        0.0382
      4 C         142.8280  142.6403  161.7550 C.ar    1  UNL1        0.1385
      5 C         144.0168  141.7695  161.4748 C.ar    1  UNL1        0.0382
      6 C         143.9693  140.7732  160.3545 C.ar    1  UNL1        0.0180
      7 O         142.4768  137.1351  153.6114 O.2     1  UNL1       -0.2699
      8 C         142.5427  136.6622  155.0334 C.2     1  UNL1        0.2494
      9 N         142.5902  137.6586  156.1536 N.am    1  UNL1       -0.2660
     10 C         142.6561  137.1857  157.5756 C.3     1  UNL1        0.1160
     11 C         142.7037  138.1821  158.6959 C.3     1  UNL1        0.1197
     12 N         142.6853  139.6513  158.3942 N.am    1  UNL1       -0.2555
     13 C         142.6194  140.1242  156.9722 C.2     1  UNL1        0.2497
     14 O         142.6011  141.5934  156.6704 O.2     1  UNL1       -0.2727
     15 C         142.5719  139.1279  155.8519 C.3     1  UNL1        0.1799
     16 C         142.5610  135.1930  155.3351 C.ar    1  UNL1        0.0536
     17 C         141.3220  134.3711  155.1367 C.ar    1  UNL1        0.0054
     18 C         141.3404  132.9019  155.4384 C.ar    1  UNL1        0.0115
     19 C         142.5978  132.2546  155.9385 C.ar    1  UNL1        0.0577
     20 CL        142.6161  130.7853  156.2402 Cl      1  UNL1       -0.0822
     21 C         143.8367  133.0765  156.1368 C.ar    1  UNL1        0.0115
     22 C         143.8183  134.5457  155.8352 C.ar    1  UNL1        0.0054
     23 O         142.8756  143.6367  162.8753 O.3     1  UNL1       -0.4791
     24 C         142.2906  143.2903  164.2124 C.3     1  UNL1        0.1687
     25 C         140.8681  143.6495  164.5244 C.3     1  UNL1        0.0609
     26 C         140.2831  143.3031  165.8615 C.3     1  UNL1        0.0758
     27 N         141.1206  142.5976  166.8866 N.3     1  UNL1       -0.2737
     28 C         142.5432  142.2384  166.5745 C.3     1  UNL1        0.0758
     29 C         143.1282  142.5848  165.2375 C.3     1  UNL1        0.0609
     30 C         140.5356  142.2513  168.2237 C.3     1  UNL1        0.0575
     31 C         140.3285  143.1992  169.3677 C.3     1  UNL1        0.0160
     32 C         139.7199  142.4299  170.5026 C.3     1  UNL1        0.0014
     33 C         139.5509  141.0067  170.0600 C.3     1  UNL1        0.0014
     34 C         140.0550  140.8963  168.6515 C.3     1  UNL1        0.0160
@<TRIPOS>BOND
     1     7     8    2
     2     8    16    1
     3    16    17   ar
     4    17    18   ar
     5    18    19   ar
     6    19    20    1
     7    19    21   ar
     8    21    22   ar
     9     8     9   am
    10     9    10    1
    11    10    11    1
    12    11    12    1
    13    12     1    1
    14     1     2   ar
    15     2     3   ar
    16     3     4   ar
    17     4    23    1
    18    23    24    1
    19    24    25    1
    20    25    26    1
    21    26    27    1
    22    27    30    1
    23    30    31    1
    24    31    32    1
    25    32    33    1
    26    33    34    1
    27    27    28    1
    28    28    29    1
    29     4     5   ar
    30     5     6   ar
    31    12    13   am
    32    13    14    2
    33    13    15    1
    34    22    16   ar
    35    15     9    1
    36     6     1   ar
    37    29    24    1
    38    34    30    1
@<TRIPOS>MOLECULE
*****
 34 38 0 0 0
SMALL
GASTEIGER

@<TRIPOS>ATOM
      1 C         141.9334  143.3587  159.9388 C.ar    1  UNL1        0.0541
      2 C         143.3826  143.0268  159.7395 C.ar    1  UNL1        0.0180
      3 C         144.1538  142.3484  160.8327 C.ar    1  UNL1        0.0382
      4 C         143.4759  142.0019  162.1251 C.ar    1  UNL1        0.1385
      5 C         142.0267  142.3339  162.3244 C.ar    1  UNL1        0.0382
      6 C         141.2555  143.0123  161.2313 C.ar    1  UNL1        0.0180
      7 O         137.7944  145.3171  154.8121 O.2     1  UNL1       -0.2699
      8 C         138.8484  146.0723  155.5663 C.2     1  UNL1        0.2494
      9 N         139.6196  145.3939  156.6594 N.am    1  UNL1       -0.2660
     10 C         140.6736  146.1491  157.4136 C.3     1  UNL1        0.1160
     11 C         141.4449  145.4706  158.5068 C.3     1  UNL1        0.1197
     12 N         141.1621  144.0371  158.8457 N.am    1  UNL1       -0.2555
     13 C         140.1081  143.2819  158.0915 C.2     1  UNL1        0.2497
     14 O         139.8254  141.8484  158.4305 O.2     1  UNL1       -0.2727
     15 C         139.3369  143.9603  156.9984 C.3     1  UNL1        0.1799
     16 C         139.1311  147.5059  155.2273 C.ar    1  UNL1        0.0536
     17 C         140.0870  147.8405  154.1209 C.ar    1  UNL1        0.0054
     18 C         140.3697  149.2741  153.7819 C.ar    1  UNL1        0.0115
     19 C         139.6965  150.3730  154.5494 C.ar    1  UNL1        0.0577
     20 CL        139.9792  151.8067  154.2104 Cl      1  UNL1       -0.0822
     21 C         138.7406  150.0385  155.6559 C.ar    1  UNL1        0.0115
     22 C         138.4579  148.6049  155.9948 C.ar    1  UNL1        0.0054
     23 O         144.2471  141.3236  163.2182 O.3     1  UNL1       -0.4791
     24 C         143.6598  141.2146  164.5942 C.3     1  UNL1        0.1687
     25 C         143.7414  142.3770  165.5387 C.3     1  UNL1        0.0609
     26 C         143.1541  142.2680  166.9146 C.3     1  UNL1        0.0758
     27 N         142.4852  140.9966  167.3460 N.3     1  UNL1       -0.2737
     28 C         142.4035  139.8341  166.4015 C.3     1  UNL1        0.0758
     29 C         142.9909  139.9431  165.0255 C.3     1  UNL1        0.0609
     30 C         141.8978  140.8876  168.7219 C.3     1  UNL1        0.0575
     31 C         140.7970  139.9581  169.1396 C.3     1  UNL1        0.0160
     32 C         140.5271  140.1850  170.5976 C.3     1  UNL1        0.0014
     33 C         141.4609  141.2547  171.0810 C.3     1  UNL1        0.0014
     34 C         142.3081  141.6889  169.9217 C.3     1  UNL1        0.0160
@<TRIPOS>BOND
     1     7     8    2
     2     8    16    1
     3    16    17   ar
     4    17    18   ar
     5    18    19   ar
     6    19    20    1
     7    19    21   ar
     8    21    22   ar
     9     8     9   am
    10     9    10    1
    11    10    11    1
    12    11    12    1
    13    12     1    1
    14     1     2   ar
    15     2     3   ar
    16     3     4   ar
    17     4    23    1
    18    23    24    1
    19    24    25    1
    20    25    26    1
    21    26    27    1
    22    27    30    1
    23    30    31    1
    24    31    32    1
    25    32    33    1
    26    33    34    1
    27    27    28    1
    28    28    29    1
    29     4     5   ar
    30     5     6   ar
    31    12    13   am
    32    13    14    2
    33    13    15    1
    34    22    16   ar
    35    15     9    1
    36     6     1   ar
    37    29    24    1
    38    34    30    1
@<TRIPOS>MOLECULE
*****
 34 38 0 0 0
SMALL
GASTEIGER

@<TRIPOS>ATOM
      1 C         142.8169  138.8006  159.8556 C.ar    1  UNL1        0.0541
      2 C         141.3631  138.7923  160.2251 C.ar    1  UNL1        0.0180
      3 C         140.9448  138.4141  161.6152 C.ar    1  UNL1        0.0382
      4 C         141.9802  138.0443  162.6355 C.ar    1  UNL1        0.1385
      5 C         143.4339  138.0526  162.2659 C.ar    1  UNL1        0.0382
      6 C         143.8523  138.4307  160.8760 C.ar    1  UNL1        0.0180
      7 O         144.1655  139.4103  153.1430 O.2     1  UNL1       -0.2699
      8 C         144.4904  140.3133  154.2958 C.2     1  UNL1        0.2494
      9 N         144.0720  139.9351  155.6858 N.am    1  UNL1       -0.2660
     10 C         144.3969  140.8381  156.8386 C.3     1  UNL1        0.1160
     11 C         143.9785  140.4599  158.2286 C.3     1  UNL1        0.1197
     12 N         143.2352  139.1788  158.4657 N.am    1  UNL1       -0.2555
     13 C         142.9104  138.2758  157.3128 C.2     1  UNL1        0.2497
     14 O         142.1671  136.9946  157.5499 O.2     1  UNL1       -0.2727
     15 C         143.3287  138.6539  155.9229 C.3     1  UNL1        0.1799
     16 C         145.2337  141.5945  154.0587 C.ar    1  UNL1        0.0536
     17 C         146.7322  141.6146  154.1206 C.ar    1  UNL1        0.0054
     18 C         147.4754  142.8958  153.8835 C.ar    1  UNL1        0.0115
     19 C         146.7201  144.1568  153.5845 C.ar    1  UNL1        0.0577
     20 CL        147.4634  145.4379  153.3474 Cl      1  UNL1       -0.0822
     21 C         145.2215  144.1366  153.5226 C.ar    1  UNL1        0.0115
     22 C         144.4783  142.8554  153.7597 C.ar    1  UNL1        0.0054
     23 O         141.5618  137.6661  164.0254 O.3     1  UNL1       -0.4791
     24 C         141.5934  138.6886  165.1225 C.3     1  UNL1        0.1687
     25 C         142.6847  138.6518  166.1508 C.3     1  UNL1        0.0609
     26 C         142.7163  139.6743  167.2479 C.3     1  UNL1        0.0758
     27 N         141.6564  140.7335  167.3167 N.3     1  UNL1       -0.2737
     28 C         140.5650  140.7703  166.2883 C.3     1  UNL1        0.0758
     29 C         140.5335  139.7478  165.1912 C.3     1  UNL1        0.0609
     30 C         141.6880  141.7560  168.4137 C.3     1  UNL1        0.0575
     31 C         142.8494  142.0424  169.3189 C.3     1  UNL1        0.0160
     32 C         142.4428  143.1350  170.2629 C.3     1  UNL1        0.0014
     33 C         141.0303  143.5238  169.9411 C.3     1  UNL1        0.0014
     34 C         140.5638  142.6715  168.7983 C.3     1  UNL1        0.0160
@<TRIPOS>BOND
     1     7     8    2
     2     8    16    1
     3    16    17   ar
     4    17    18   ar
     5    18    19   ar
     6    19    20    1
     7    19    21   ar
     8    21    22   ar
     9     8     9   am
    10     9    10    1
    11    10    11    1
    12    11    12    1
    13    12     1    1
    14     1     2   ar
    15     2     3   ar
    16     3     4   ar
    17     4    23    1
    18    23    24    1
    19    24    25    1
    20    25    26    1
    21    26    27    1
    22    27    30    1
    23    30    31    1
    24    31    32    1
    25    32    33    1
    26    33    34    1
    27    27    28    1
    28    28    29    1
    29     4     5   ar
    30     5     6   ar
    31    12    13   am
    32    13    14    2
    33    13    15    1
    34    22    16   ar
    35    15     9    1
    36     6     1   ar
    37    29    24    1
    38    34    30    1
@<TRIPOS>MOLECULE
*****
 34 38 0 0 0
SMALL
GASTEIGER

@<TRIPOS>ATOM
      1 C         142.1019  138.5776  159.6463 C.ar    1  UNL1        0.0541
      2 C         141.5592  137.9428  160.8924 C.ar    1  UNL1        0.0180
      3 C         142.3112  138.0642  162.1846 C.ar    1  UNL1        0.0382
      4 C         143.6058  138.8204  162.2308 C.ar    1  UNL1        0.1385
      5 C         144.1485  139.4552  160.9848 C.ar    1  UNL1        0.0382
      6 C         143.3965  139.3339  159.6926 C.ar    1  UNL1        0.0180
      7 O         139.5114  137.0722  153.4599 O.2     1  UNL1       -0.2699
      8 C         139.0940  138.0921  154.4775 C.2     1  UNL1        0.2494
      9 N         139.8460  138.2135  155.7697 N.am    1  UNL1       -0.2660
     10 C         139.4286  139.2334  156.7874 C.3     1  UNL1        0.1160
     11 C         140.1807  139.3548  158.0796 C.3     1  UNL1        0.1197
     12 N         141.3499  138.4562  158.3541 N.am    1  UNL1       -0.2555
     13 C         141.7672  137.4363  157.3365 C.2     1  UNL1        0.2497
     14 O         142.9365  136.5378  157.6110 O.2     1  UNL1       -0.2727
     15 C         141.0153  137.3150  156.0443 C.3     1  UNL1        0.1799
     16 C         137.9247  138.9907  154.2029 C.ar    1  UNL1        0.0536
     17 C         138.1445  140.3403  153.5864 C.ar    1  UNL1        0.0054
     18 C         136.9752  141.2388  153.3118 C.ar    1  UNL1        0.0115
     19 C         135.5861  140.7877  153.6538 C.ar    1  UNL1        0.0577
     20 CL        134.4168  141.6862  153.3792 Cl      1  UNL1       -0.0822
     21 C         135.3663  139.4380  154.2704 C.ar    1  UNL1        0.0115
     22 C         136.5356  138.5396  154.5449 C.ar    1  UNL1        0.0054
     23 O         144.3578  138.9418  163.5230 O.3     1  UNL1       -0.4791
     24 C         143.7787  139.7361  164.6559 C.3     1  UNL1        0.1687
     25 C         143.0942  139.0342  165.7912 C.3     1  UNL1        0.0609
     26 C         142.5151  139.8286  166.9242 C.3     1  UNL1        0.0758
     27 N         142.6205  141.3248  166.9219 N.3     1  UNL1       -0.2737
     28 C         143.3049  142.0268  165.7867 C.3     1  UNL1        0.0758
     29 C         143.8840  141.2325  164.6537 C.3     1  UNL1        0.0609
     30 C         142.0414  142.1192  168.0549 C.3     1  UNL1        0.0575
     31 C         140.6256  142.6040  168.1587 C.3     1  UNL1        0.0160
     32 C         140.4856  143.3526  169.4510 C.3     1  UNL1        0.0014
     33 C         141.8148  143.3305  170.1458 C.3     1  UNL1        0.0014
     34 C         142.7762  142.5682  169.2830 C.3     1  UNL1        0.0160
@<TRIPOS>BOND
     1     7     8    2
     2     8    16    1
     3    16    17   ar
     4    17    18   ar
     5    18    19   ar
     6    19    20    1
     7    19    21   ar
     8    21    22   ar
     9     8     9   am
    10     9    10    1
    11    10    11    1
    12    11    12    1
    13    12     1    1
    14     1     2   ar
    15     2     3   ar
    16     3     4   ar
    17     4    23    1
    18    23    24    1
    19    24    25    1
    20    25    26    1
    21    26    27    1
    22    27    30    1
    23    30    31    1
    24    31    32    1
    25    32    33    1
    26    33    34    1
    27    27    28    1
    28    28    29    1
    29     4     5   ar
    30     5     6   ar
    31    12    13   am
    32    13    14    2
    33    13    15    1
    34    22    16   ar
    35    15     9    1
    36     6     1   ar
    37    29    24    1
    38    34    30    1
