@<TRIPOS>MOLECULE
*****
 38 42 0 0 0
SMALL
GASTEIGER

@<TRIPOS>ATOM
      1 N         139.1448  139.9307  158.9966 N.am    1  UNL1       -0.2996
      2 C         138.2203  139.5666  160.1204 C.2     1  UNL1        0.2648
      3 O         136.7352  139.6453  159.9252 O.2     1  UNL1       -0.2684
      4 H         140.1196  139.8791  159.1248 H       1  UNL1        0.1498
      5 C         138.7810  139.1238  161.4393 C.ar    1  UNL1        0.1476
      6 N         139.7611  138.0081  161.6509 N.ar    1  UNL1       -0.2264
      7 C         140.0459  137.9137  163.1205 C.ar    1  UNL1        0.1245
      8 C         140.9721  136.9340  163.7780 C.3     1  UNL1        0.0722
      9 N         139.2418  138.9710  163.8173 N.ar    1  UNL1       -0.2971
     10 C         138.4600  139.7189  162.7784 C.ar    1  UNL1        0.0648
     11 C         137.5221  140.8613  163.0335 C.3     1  UNL1        0.0522
     12 C         139.2228  139.2343  165.2940 C.ar    1  UNL1        0.0680
     13 C         138.0575  138.7795  166.1219 C.ar    1  UNL1        0.0209
     14 C         138.0384  139.0427  167.5985 C.ar    1  UNL1        0.0415
     15 C         139.1846  139.7608  168.2472 C.ar    1  UNL1        0.1725
     16 C         140.3499  140.2155  167.4193 C.ar    1  UNL1        0.1738
     17 C         140.3689  139.9523  165.9426 C.ar    1  UNL1        0.0576
     18 O         141.4960  140.9335  168.0679 O.3     1  UNL1       -0.4683
     19 C         141.4769  141.1968  169.5445 C.3     1  UNL1        0.2526
     20 C         140.3117  140.7420  170.3724 C.3     1  UNL1        0.2526
     21 O         139.1655  140.0240  169.7238 O.3     1  UNL1       -0.4684
     22 C         138.5841  140.3735  157.6777 C.3     1  UNL1        0.0912
     23 C         137.9174  141.7117  157.5575 C.3     1  UNL1        0.0386
     24 C         138.7042  142.9660  157.7981 C.3     1  UNL1        0.0739
     25 N         141.4368  143.2593  161.3614 N.pl3   1  UNL1       -0.3049
     26 C         139.9493  143.2884  161.5525 C.3     1  UNL1        0.1081
     27 C         139.0384  143.1906  160.3647 C.3     1  UNL1        0.0938
     28 N         139.6150  143.0637  158.9859 N.3     1  UNL1       -0.2697
     29 C         141.1025  143.0347  158.7947 C.3     1  UNL1        0.0938
     30 C         142.0134  143.1324  159.9825 C.3     1  UNL1        0.1081
     31 C         144.0889  140.9704  165.1990 C.3     1  UNL1        0.0307
     32 C         143.6737  142.2127  164.4680 C.ar    1  UNL1       -0.0246
     33 C         144.1693  143.5528  164.9246 C.ar    1  UNL1       -0.0045
     34 C         143.7541  144.7950  164.1936 C.ar    1  UNL1        0.0009
     35 C         142.8433  144.6972  163.0059 C.ar    1  UNL1        0.0142
     36 C         142.3476  143.3571  162.5492 C.ar    1  UNL1        0.0436
     37 C         142.7628  142.1149  163.2802 C.ar    1  UNL1       -0.0125
     38 C         142.2671  140.7748  162.8235 C.3     1  UNL1        0.0320
@<TRIPOS>BOND
     1    31    32    1
     2    32    33   ar
     3    33    34   ar
     4    34    35   ar
     5    35    36   ar
     6    36    25    1
     7    25    26    1
     8    26    27    1
     9    27    28    1
    10    28    24    1
    11    24    23    1
    12    23    22    1
    13    22     1    1
    14     1     2   am
    15     2     3    2
    16     2     5    1
    17     5     6   ar
    18     6     7   ar
    19     7     8    1
    20     7     9   ar
    21     9    12    1
    22    12    13   ar
    23    13    14   ar
    24    14    15   ar
    25    15    16   ar
    26    16    17   ar
    27    16    18    1
    28    18    19    1
    29    19    20    1
    30    20    21    1
    31     9    10   ar
    32    10    11    1
    33    28    29    1
    34    29    30    1
    35    36    37   ar
    36    37    38    1
    37    37    32   ar
    38    30    25    1
    39    10     5   ar
    40    17    12   ar
    41    21    15    1
    42     1     4    1
@<TRIPOS>MOLECULE
*****
 38 42 0 0 0
SMALL
GASTEIGER

@<TRIPOS>ATOM
      1 N         139.9235  138.4650  158.9838 N.am    1  UNL1       -0.2996
      2 C         138.8621  139.5024  159.2020 C.2     1  UNL1        0.2648
      3 O         137.9637  139.9057  158.0705 O.2     1  UNL1       -0.2684
      4 H         140.5131  138.2003  159.7264 H       1  UNL1        0.1498
      5 C         138.6992  140.1363  160.5516 C.ar    1  UNL1        0.1476
      6 N         138.1541  141.5074  160.8217 N.ar    1  UNL1       -0.2264
      7 C         138.1707  141.7289  162.3052 C.ar    1  UNL1        0.1245
      8 C         137.7125  142.9672  163.0170 C.3     1  UNL1        0.0722
      9 N         138.7261  140.4948  162.9519 N.ar    1  UNL1       -0.2971
     10 C         139.0527  139.5104  161.8683 C.ar    1  UNL1        0.0648
     11 C         139.6313  138.1407  162.0663 C.3     1  UNL1        0.0522
     12 C         138.9208  140.2822  164.4240 C.ar    1  UNL1        0.0680
     13 C         138.1114  139.2457  165.1456 C.ar    1  UNL1        0.0209
     14 C         138.3060  139.0330  166.6176 C.ar    1  UNL1        0.0415
     15 C         139.3100  139.8569  167.3681 C.ar    1  UNL1        0.1725
     16 C         140.1194  140.8934  166.6466 C.ar    1  UNL1        0.1738
     17 C         139.9247  141.1060  165.1745 C.ar    1  UNL1        0.0576
     18 O         141.1233  141.7173  167.3971 O.3     1  UNL1       -0.4683
     19 C         141.3179  141.5046  168.8691 C.3     1  UNL1        0.2526
     20 C         140.5086  140.4681  169.5906 C.3     1  UNL1        0.2526
     21 O         139.5046  139.6443  168.8401 O.3     1  UNL1       -0.4684
     22 C         140.0864  137.8311  157.6341 C.3     1  UNL1        0.0912
     23 C         141.4573  137.6376  157.0570 C.3     1  UNL1        0.0386
     24 C         142.6179  137.3479  157.9619 C.3     1  UNL1        0.0739
     25 N         143.6264  140.1850  161.3062 N.pl3   1  UNL1       -0.3049
     26 C         143.6001  140.6755  159.8889 C.3     1  UNL1        0.1081
     27 C         143.2639  139.7297  158.7741 C.3     1  UNL1        0.0938
     28 N         142.9541  138.2936  159.0767 N.3     1  UNL1       -0.2697
     29 C         142.9804  137.8032  160.4940 C.3     1  UNL1        0.0938
     30 C         143.3166  138.7489  161.6088 C.3     1  UNL1        0.1081
     31 C         142.3664  144.2395  164.3018 C.3     1  UNL1        0.0307
     32 C         143.3326  143.1580  163.9188 C.ar    1  UNL1       -0.0246
     33 C         144.6350  143.0221  164.6504 C.ar    1  UNL1       -0.0045
     34 C         145.6012  141.9405  164.2674 C.ar    1  UNL1        0.0009
     35 C         145.2650  140.9949  163.1527 C.ar    1  UNL1        0.0142
     36 C         143.9626  141.1308  162.4210 C.ar    1  UNL1        0.0436
     37 C         142.9964  142.2123  162.8040 C.ar    1  UNL1       -0.0125
     38 C         141.6941  142.3481  162.0723 C.3     1  UNL1        0.0320
@<TRIPOS>BOND
     1    31    32    1
     2    32    33   ar
     3    33    34   ar
     4    34    35   ar
     5    35    36   ar
     6    36    25    1
     7    25    26    1
     8    26    27    1
     9    27    28    1
    10    28    24    1
    11    24    23    1
    12    23    22    1
    13    22     1    1
    14     1     2   am
    15     2     3    2
    16     2     5    1
    17     5     6   ar
    18     6     7   ar
    19     7     8    1
    20     7     9   ar
    21     9    12    1
    22    12    13   ar
    23    13    14   ar
    24    14    15   ar
    25    15    16   ar
    26    16    17   ar
    27    16    18    1
    28    18    19    1
    29    19    20    1
    30    20    21    1
    31     9    10   ar
    32    10    11    1
    33    28    29    1
    34    29    30    1
    35    36    37   ar
    36    37    38    1
    37    37    32   ar
    38    30    25    1
    39    10     5   ar
    40    17    12   ar
    41    21    15    1
    42     1     4    1
@<TRIPOS>MOLECULE
*****
 38 42 0 0 0
SMALL
GASTEIGER

@<TRIPOS>ATOM
      1 N         142.1575  144.4671  159.8254 N.am    1  UNL1       -0.2996
      2 C         141.8563  144.5252  161.2937 C.2     1  UNL1        0.2648
      3 O         140.7938  145.4522  161.8052 O.2     1  UNL1       -0.2684
      4 H         142.8549  143.8586  159.4897 H       1  UNL1        0.1498
      5 C         142.6175  143.6562  162.2505 C.ar    1  UNL1        0.1476
      6 N         144.0695  143.2936  162.1483 N.ar    1  UNL1       -0.2264
      7 C         144.4097  142.4106  163.3121 C.ar    1  UNL1        0.1245
      8 C         145.7553  141.8152  163.6033 C.3     1  UNL1        0.0722
      9 N         143.1681  142.2275  164.1336 N.ar    1  UNL1       -0.2971
     10 C         142.0604  142.9973  163.4776 C.ar    1  UNL1        0.0648
     11 C         140.6444  143.0916  163.9632 C.3     1  UNL1        0.0522
     12 C         143.0542  141.4168  165.3906 C.ar    1  UNL1        0.0680
     13 C         143.0065  139.9195  165.3156 C.ar    1  UNL1        0.0209
     14 C         142.8925  139.1088  166.5725 C.ar    1  UNL1        0.0415
     15 C         142.8262  139.7955  167.9045 C.ar    1  UNL1        0.1725
     16 C         142.8739  141.2929  167.9795 C.ar    1  UNL1        0.1738
     17 C         142.9879  142.1035  166.7225 C.ar    1  UNL1        0.0576
     18 O         142.8077  141.9796  169.3114 O.3     1  UNL1       -0.4683
     19 C         142.6937  141.1689  170.5682 C.3     1  UNL1        0.2526
     20 C         142.6460  139.6716  170.4932 C.3     1  UNL1        0.2526
     21 O         142.7122  138.9848  169.1613 O.3     1  UNL1       -0.4684
     22 C         141.3963  145.3360  158.8686 C.3     1  UNL1        0.0912
     23 C         140.0182  144.9393  158.4291 C.3     1  UNL1        0.0386
     24 C         139.7045  143.4987  158.1533 C.3     1  UNL1        0.0739
     25 N         139.8096  140.4926  161.5004 N.pl3   1  UNL1       -0.3049
     26 C         138.6573  141.4459  161.3844 C.3     1  UNL1        0.1081
     27 C         138.6223  142.4479  160.2687 C.3     1  UNL1        0.0938
     28 N         139.7395  142.4966  159.2690 N.3     1  UNL1       -0.2697
     29 C         140.8918  141.5433  159.3850 C.3     1  UNL1        0.0938
     30 C         140.9268  140.5413  160.5007 C.3     1  UNL1        0.1081
     31 C         138.0994  138.8406  166.1206 C.3     1  UNL1        0.0307
     32 C         138.9895  138.6645  164.9262 C.ar    1  UNL1       -0.0246
     33 C         139.9147  137.4865  164.8473 C.ar    1  UNL1       -0.0045
     34 C         140.8048  137.3104  163.6529 C.ar    1  UNL1        0.0009
     35 C         140.7698  138.3124  162.5373 C.ar    1  UNL1        0.0142
     36 C         139.8446  139.4905  162.6161 C.ar    1  UNL1        0.0436
     37 C         138.9545  139.6666  163.8105 C.ar    1  UNL1       -0.0125
     38 C         138.0293  140.8446  163.8892 C.3     1  UNL1        0.0320
@<TRIPOS>BOND
     1    31    32    1
     2    32    33   ar
     3    33    34   ar
     4    34    35   ar
     5    35    36   ar
     6    36    25    1
     7    25    26    1
     8    26    27    1
     9    27    28    1
    10    28    24    1
    11    24    23    1
    12    23    22    1
    13    22     1    1
    14     1     2   am
    15     2     3    2
    16     2     5    1
    17     5     6   ar
    18     6     7   ar
    19     7     8    1
    20     7     9   ar
    21     9    12    1
    22    12    13   ar
    23    13    14   ar
    24    14    15   ar
    25    15    16   ar
    26    16    17   ar
    27    16    18    1
    28    18    19    1
    29    19    20    1
    30    20    21    1
    31     9    10   ar
    32    10    11    1
    33    28    29    1
    34    29    30    1
    35    36    37   ar
    36    37    38    1
    37    37    32   ar
    38    30    25    1
    39    10     5   ar
    40    17    12   ar
    41    21    15    1
    42     1     4    1
@<TRIPOS>MOLECULE
*****
 38 42 0 0 0
SMALL
GASTEIGER

@<TRIPOS>ATOM
      1 N         140.9604  144.7727  160.3516 N.am    1  UNL1       -0.2996
      2 C         140.7152  145.2857  161.7397 C.2     1  UNL1        0.2648
      3 O         139.9744  146.5741  161.9432 O.2     1  UNL1       -0.2684
      4 H         141.4466  143.9271  160.2180 H       1  UNL1        0.1498
      5 C         141.2107  144.5104  162.9242 C.ar    1  UNL1        0.1476
      6 N         142.6431  144.3609  163.3437 N.ar    1  UNL1       -0.2264
      7 C         142.6785  143.5065  164.5761 C.ar    1  UNL1        0.1245
      8 C         143.9084  143.1017  165.3333 C.3     1  UNL1        0.0722
      9 N         141.2680  143.1278  164.9182 N.ar    1  UNL1       -0.2971
     10 C         140.3608  143.7482  163.8974 C.ar    1  UNL1        0.0648
     11 C         138.8662  143.6277  163.8568 C.3     1  UNL1        0.0522
     12 C         140.8398  142.2780  166.0778 C.ar    1  UNL1        0.0680
     13 C         139.9522  141.0904  165.8498 C.ar    1  UNL1        0.0209
     14 C         139.5240  140.2406  167.0092 C.ar    1  UNL1        0.0415
     15 C         139.9834  140.5782  168.3967 C.ar    1  UNL1        0.1725
     16 C         140.8710  141.7657  168.6247 C.ar    1  UNL1        0.1738
     17 C         141.2992  142.6156  167.4652 C.ar    1  UNL1        0.0576
     18 O         141.3304  142.1034  170.0121 O.3     1  UNL1       -0.4683
     19 C         140.9021  141.2535  171.1715 C.3     1  UNL1        0.2526
     20 C         140.0145  140.0660  170.9435 C.3     1  UNL1        0.2526
     21 O         139.5552  139.7283  169.5561 O.3     1  UNL1       -0.4684
     22 C         140.4649  145.5481  159.1670 C.3     1  UNL1        0.0912
     23 C         140.2128  144.8481  157.8646 C.3     1  UNL1        0.0386
     24 C         139.3919  143.5931  157.8343 C.3     1  UNL1        0.0739
     25 N         139.8688  140.5136  161.0808 N.pl3   1  UNL1       -0.3049
     26 C         138.7219  141.4794  161.1257 C.3     1  UNL1        0.1081
     27 C         138.5630  142.5058  160.0435 C.3     1  UNL1        0.0938
     28 N         139.5509  142.5666  158.9165 N.3     1  UNL1       -0.2697
     29 C         140.6978  141.6008  158.8716 C.3     1  UNL1        0.0938
     30 C         140.8567  140.5743  159.9538 C.3     1  UNL1        0.1081
     31 C         142.6916  138.3957  164.8948 C.3     1  UNL1        0.0307
     32 C         141.4391  138.4282  164.0700 C.ar    1  UNL1       -0.0246
     33 C         140.3456  137.4342  164.3273 C.ar    1  UNL1       -0.0045
     34 C         139.0931  137.4667  163.5025 C.ar    1  UNL1        0.0009
     35 C         138.9342  138.4931  162.4204 C.ar    1  UNL1        0.0142
     36 C         140.0277  139.4871  162.1630 C.ar    1  UNL1        0.0436
     37 C         141.2802  139.4546  162.9878 C.ar    1  UNL1       -0.0125
     38 C         142.3737  140.4486  162.7305 C.3     1  UNL1        0.0320
@<TRIPOS>BOND
     1    31    32    1
     2    32    33   ar
     3    33    34   ar
     4    34    35   ar
     5    35    36   ar
     6    36    25    1
     7    25    26    1
     8    26    27    1
     9    27    28    1
    10    28    24    1
    11    24    23    1
    12    23    22    1
    13    22     1    1
    14     1     2   am
    15     2     3    2
    16     2     5    1
    17     5     6   ar
    18     6     7   ar
    19     7     8    1
    20     7     9   ar
    21     9    12    1
    22    12    13   ar
    23    13    14   ar
    24    14    15   ar
    25    15    16   ar
    26    16    17   ar
    27    16    18    1
    28    18    19    1
    29    19    20    1
    30    20    21    1
    31     9    10   ar
    32    10    11    1
    33    28    29    1
    34    29    30    1
    35    36    37   ar
    36    37    38    1
    37    37    32   ar
    38    30    25    1
    39    10     5   ar
    40    17    12   ar
    41    21    15    1
    42     1     4    1
@<TRIPOS>MOLECULE
*****
 38 42 0 0 0
SMALL
GASTEIGER

@<TRIPOS>ATOM
      1 N         142.7951  139.0550  158.8874 N.am    1  UNL1       -0.2996
      2 C         143.1794  138.3802  160.1707 C.2     1  UNL1        0.2648
      3 O         143.2965  136.8858  160.2264 O.2     1  UNL1       -0.2684
      4 H         142.7183  140.0358  158.8508 H       1  UNL1        0.1498
      5 C         143.4466  139.1997  161.3983 C.ar    1  UNL1        0.1476
      6 N         144.5497  140.2023  161.5662 N.ar    1  UNL1       -0.2264
      7 C         144.4424  140.7828  162.9452 C.ar    1  UNL1        0.1245
      8 C         145.3458  141.8242  163.5361 C.3     1  UNL1        0.0722
      9 N         143.2732  140.1389  163.6295 N.ar    1  UNL1       -0.2971
     10 C         142.6577  139.1605  162.6735 C.ar    1  UNL1        0.0648
     11 C         141.4631  138.2949  162.9450 C.3     1  UNL1        0.0522
     12 C         142.8021  140.4235  165.0249 C.ar    1  UNL1        0.0680
     13 C         141.9994  141.6586  165.3083 C.ar    1  UNL1        0.0209
     14 C         141.5283  141.9432  166.7036 C.ar    1  UNL1        0.0415
     15 C         141.8598  140.9926  167.8157 C.ar    1  UNL1        0.1725
     16 C         142.6624  139.7575  167.5323 C.ar    1  UNL1        0.1738
     17 C         143.1336  139.4729  166.1369 C.ar    1  UNL1        0.0576
     18 O         142.9939  138.8070  168.6443 O.3     1  UNL1       -0.4683
     19 C         142.5228  139.0915  170.0397 C.3     1  UNL1        0.2526
     20 C         141.7202  140.3267  170.3230 C.3     1  UNL1        0.2526
     21 O         141.3887  141.2772  169.2110 O.3     1  UNL1       -0.4684
     22 C         142.5279  138.2355  157.6598 C.3     1  UNL1        0.0912
     23 C         141.1505  137.7019  157.3994 C.3     1  UNL1        0.0386
     24 C         139.9761  138.6347  157.3797 C.3     1  UNL1        0.0739
     25 N         139.4980  141.7191  160.6215 N.pl3   1  UNL1       -0.3049
     26 C         139.8330  142.1463  159.2232 C.3     1  UNL1        0.1081
     27 C         139.9924  141.1182  158.1426 C.3     1  UNL1        0.0938
     28 N         139.8167  139.6628  158.4603 N.3     1  UNL1       -0.2697
     29 C         139.4817  139.2356  159.8586 C.3     1  UNL1        0.0938
     30 C         139.3223  140.2637  160.9392 C.3     1  UNL1        0.1081
     31 C         141.5972  145.1210  163.9411 C.3     1  UNL1        0.0307
     32 C         140.3882  144.4481  163.3619 C.ar    1  UNL1       -0.0246
     33 C         139.0197  144.8033  163.8631 C.ar    1  UNL1       -0.0045
     34 C         137.8107  144.1304  163.2838 C.ar    1  UNL1        0.0009
     35 C         137.9701  143.1024  162.2033 C.ar    1  UNL1        0.0142
     36 C         139.3386  142.7472  161.7020 C.ar    1  UNL1        0.0436
     37 C         140.5476  143.4200  162.2813 C.ar    1  UNL1       -0.0125
     38 C         141.9160  143.0648  161.7800 C.3     1  UNL1        0.0320
@<TRIPOS>BOND
     1    31    32    1
     2    32    33   ar
     3    33    34   ar
     4    34    35   ar
     5    35    36   ar
     6    36    25    1
     7    25    26    1
     8    26    27    1
     9    27    28    1
    10    28    24    1
    11    24    23    1
    12    23    22    1
    13    22     1    1
    14     1     2   am
    15     2     3    2
    16     2     5    1
    17     5     6   ar
    18     6     7   ar
    19     7     8    1
    20     7     9   ar
    21     9    12    1
    22    12    13   ar
    23    13    14   ar
    24    14    15   ar
    25    15    16   ar
    26    16    17   ar
    27    16    18    1
    28    18    19    1
    29    19    20    1
    30    20    21    1
    31     9    10   ar
    32    10    11    1
    33    28    29    1
    34    29    30    1
    35    36    37   ar
    36    37    38    1
    37    37    32   ar
    38    30    25    1
    39    10     5   ar
    40    17    12   ar
    41    21    15    1
    42     1     4    1
@<TRIPOS>MOLECULE
*****
 38 42 0 0 0
SMALL
GASTEIGER

@<TRIPOS>ATOM
      1 N         139.9669  145.0977  160.0805 N.am    1  UNL1       -0.2996
      2 C         140.9876  144.7440  161.1214 C.2     1  UNL1        0.2648
      3 O         142.4412  144.6837  160.7563 O.2     1  UNL1       -0.2684
      4 H         139.0129  145.1374  160.3201 H       1  UNL1        0.1498
      5 C         140.5545  144.4507  162.5272 C.ar    1  UNL1        0.1476
      6 N         139.4387  145.1286  163.2657 N.ar    1  UNL1       -0.2264
      7 C         139.3558  144.5248  164.6363 C.ar    1  UNL1        0.1245
      8 C         138.3798  144.9053  165.7098 C.3     1  UNL1        0.0722
      9 N         140.4205  143.4738  164.7449 N.ar    1  UNL1       -0.2971
     10 C         141.1613  143.4279  163.4415 C.ar    1  UNL1        0.0648
     11 C         142.3077  142.5190  163.1103 C.3     1  UNL1        0.0522
     12 C         140.6959  142.6186  165.9462 C.ar    1  UNL1        0.0680
     13 C         141.2856  141.2503  165.7733 C.ar    1  UNL1        0.0209
     14 C         141.5611  140.3951  166.9745 C.ar    1  UNL1        0.0415
     15 C         141.2469  140.9083  168.3486 C.ar    1  UNL1        0.1725
     16 C         140.6573  142.2767  168.5214 C.ar    1  UNL1        0.1738
     17 C         140.3818  143.1319  167.3201 C.ar    1  UNL1        0.0576
     18 O         140.3431  142.7899  169.8954 O.3     1  UNL1       -0.4683
     19 C         140.6186  141.9348  171.0965 C.3     1  UNL1        0.2526
     20 C         141.2082  140.5664  170.9237 C.3     1  UNL1        0.2526
     21 O         141.5224  140.0532  169.5497 O.3     1  UNL1       -0.4684
     22 C         140.4000  145.3911  158.6747 C.3     1  UNL1        0.0912
     23 C         140.4025  144.2983  157.6473 C.3     1  UNL1        0.0386
     24 C         139.4180  143.1712  157.7488 C.3     1  UNL1        0.0739
     25 N         139.5510  140.3782  161.2747 N.pl3   1  UNL1       -0.3049
     26 C         138.2491  140.9922  160.8529 C.3     1  UNL1        0.1081
     27 C         138.2047  141.9231  159.6776 C.3     1  UNL1        0.0938
     28 N         139.4623  142.2402  158.9241 N.3     1  UNL1       -0.2697
     29 C         140.7643  141.6263  159.3459 C.3     1  UNL1        0.0938
     30 C         140.8087  140.6953  160.5212 C.3     1  UNL1        0.1081
     31 C         138.0819  139.1587  166.1074 C.3     1  UNL1        0.0307
     32 C         138.8608  138.8375  164.8664 C.ar    1  UNL1       -0.0246
     33 C         139.6841  137.5853  164.8005 C.ar    1  UNL1       -0.0045
     34 C         140.4630  137.2641  163.5595 C.ar    1  UNL1        0.0009
     35 C         140.4187  138.1950  162.3843 C.ar    1  UNL1        0.0142
     36 C         139.5954  139.4473  162.4500 C.ar    1  UNL1        0.0436
     37 C         138.8165  139.7684  163.6911 C.ar    1  UNL1       -0.0125
     38 C         137.9933  141.0206  163.7567 C.3     1  UNL1        0.0320
@<TRIPOS>BOND
     1    31    32    1
     2    32    33   ar
     3    33    34   ar
     4    34    35   ar
     5    35    36   ar
     6    36    25    1
     7    25    26    1
     8    26    27    1
     9    27    28    1
    10    28    24    1
    11    24    23    1
    12    23    22    1
    13    22     1    1
    14     1     2   am
    15     2     3    2
    16     2     5    1
    17     5     6   ar
    18     6     7   ar
    19     7     8    1
    20     7     9   ar
    21     9    12    1
    22    12    13   ar
    23    13    14   ar
    24    14    15   ar
    25    15    16   ar
    26    16    17   ar
    27    16    18    1
    28    18    19    1
    29    19    20    1
    30    20    21    1
    31     9    10   ar
    32    10    11    1
    33    28    29    1
    34    29    30    1
    35    36    37   ar
    36    37    38    1
    37    37    32   ar
    38    30    25    1
    39    10     5   ar
    40    17    12   ar
    41    21    15    1
    42     1     4    1
@<TRIPOS>MOLECULE
*****
 38 42 0 0 0
SMALL
GASTEIGER

@<TRIPOS>ATOM
      1 N         138.6453  143.0646  158.9113 N.am    1  UNL1       -0.2996
      2 C         138.3680  141.9296  159.8520 C.2     1  UNL1        0.2648
      3 O         138.0796  140.5606  159.3111 O.2     1  UNL1       -0.2684
      4 H         138.8345  143.9631  159.2663 H       1  UNL1        0.1498
      5 C         138.3790  142.1636  161.3336 C.ar    1  UNL1        0.1476
      6 N         137.8501  143.3775  162.0385 N.ar    1  UNL1       -0.2264
      7 C         138.0652  143.1890  163.5109 C.ar    1  UNL1        0.1245
      8 C         137.6852  144.1602  164.5890 C.3     1  UNL1        0.0722
      9 N         138.7270  141.8586  163.7161 N.ar    1  UNL1       -0.2971
     10 C         138.9210  141.2249  162.3705 C.ar    1  UNL1        0.0648
     11 C         139.5470  139.8873  162.1078 C.3     1  UNL1        0.0522
     12 C         139.1250  141.2659  165.0354 C.ar    1  UNL1        0.0680
     13 C         138.3274  140.1395  165.6227 C.ar    1  UNL1        0.0209
     14 C         138.7253  139.5469  166.9419 C.ar    1  UNL1        0.0415
     15 C         139.9209  140.0806  167.6739 C.ar    1  UNL1        0.1725
     16 C         140.7186  141.2070  167.0865 C.ar    1  UNL1        0.1738
     17 C         140.3206  141.7997  165.7672 C.ar    1  UNL1        0.0576
     18 O         141.9142  141.7407  167.8184 O.3     1  UNL1       -0.4683
     19 C         142.3121  141.1480  169.1376 C.3     1  UNL1        0.2526
     20 C         141.5145  140.0216  169.7249 C.3     1  UNL1        0.2526
     21 O         140.3189  139.4879  168.9931 O.3     1  UNL1       -0.4684
     22 C         138.6342  142.8306  157.4297 C.3     1  UNL1        0.0912
     23 C         139.6637  143.4875  156.5589 C.3     1  UNL1        0.0386
     24 C         140.5641  144.5435  157.1283 C.3     1  UNL1        0.0739
     25 N         142.4212  143.9681  161.1867 N.pl3   1  UNL1       -0.3049
     26 C         141.2424  144.8813  161.0239 C.3     1  UNL1        0.1081
     27 C         140.6233  145.0730  159.6711 C.3     1  UNL1        0.0938
     28 N         141.1831  144.3517  158.4811 N.3     1  UNL1       -0.2697
     29 C         142.3620  143.4386  158.6438 C.3     1  UNL1        0.0938
     30 C         142.9810  143.2468  159.9966 C.3     1  UNL1        0.1081
     31 C         143.9754  140.8224  165.0192 C.3     1  UNL1        0.0307
     32 C         143.8174  142.2035  164.4557 C.ar    1  UNL1       -0.0246
     33 C         144.2783  143.3929  165.2450 C.ar    1  UNL1       -0.0045
     34 C         144.1202  144.7740  164.6815 C.ar    1  UNL1        0.0009
     35 C         143.5012  144.9658  163.3288 C.ar    1  UNL1        0.0142
     36 C         143.0403  143.7763  162.5395 C.ar    1  UNL1        0.0436
     37 C         143.1983  142.3952  163.1029 C.ar    1  UNL1       -0.0125
     38 C         142.7374  141.2059  162.3136 C.3     1  UNL1        0.0320
@<TRIPOS>BOND
     1    31    32    1
     2    32    33   ar
     3    33    34   ar
     4    34    35   ar
     5    35    36   ar
     6    36    25    1
     7    25    26    1
     8    26    27    1
     9    27    28    1
    10    28    24    1
    11    24    23    1
    12    23    22    1
    13    22     1    1
    14     1     2   am
    15     2     3    2
    16     2     5    1
    17     5     6   ar
    18     6     7   ar
    19     7     8    1
    20     7     9   ar
    21     9    12    1
    22    12    13   ar
    23    13    14   ar
    24    14    15   ar
    25    15    16   ar
    26    16    17   ar
    27    16    18    1
    28    18    19    1
    29    19    20    1
    30    20    21    1
    31     9    10   ar
    32    10    11    1
    33    28    29    1
    34    29    30    1
    35    36    37   ar
    36    37    38    1
    37    37    32   ar
    38    30    25    1
    39    10     5   ar
    40    17    12   ar
    41    21    15    1
    42     1     4    1
@<TRIPOS>MOLECULE
*****
 38 42 0 0 0
SMALL
GASTEIGER

@<TRIPOS>ATOM
      1 N         139.7742  138.9171  158.6929 N.am    1  UNL1       -0.2996
      2 C         138.9139  139.1878  159.8915 C.2     1  UNL1        0.2648
      3 O         137.5098  139.6836  159.7103 O.2     1  UNL1       -0.2684
      4 H         140.6957  138.5917  158.8119 H       1  UNL1        0.1498
      5 C         139.4576  138.9628  161.2712 C.ar    1  UNL1        0.1476
      6 N         140.0659  137.6905  161.7826 N.ar    1  UNL1       -0.2264
      7 C         140.4727  137.9119  163.2093 C.ar    1  UNL1        0.1245
      8 C         141.1224  136.9017  164.1078 C.3     1  UNL1        0.0722
      9 N         140.1159  139.3209  163.5797 N.ar    1  UNL1       -0.2971
     10 C         139.4885  139.9705  162.3820 C.ar    1  UNL1        0.0648
     11 C         138.9811  141.3801  162.3080 C.3     1  UNL1        0.0522
     12 C         140.3460  139.9671  164.9137 C.ar    1  UNL1        0.0680
     13 C         141.3908  141.0334  165.0604 C.ar    1  UNL1        0.0209
     14 C         141.6209  141.6796  166.3943 C.ar    1  UNL1        0.0415
     15 C         140.8062  141.2595  167.5817 C.ar    1  UNL1        0.1725
     16 C         139.7614  140.1933  167.4351 C.ar    1  UNL1        0.1738
     17 C         139.5313  139.5471  166.1011 C.ar    1  UNL1        0.0576
     18 O         138.9468  139.7732  168.6224 O.3     1  UNL1       -0.4683
     19 C         139.1769  140.4194  169.9564 C.3     1  UNL1        0.2526
     20 C         140.2217  141.4856  170.1030 C.3     1  UNL1        0.2526
     21 O         141.0364  141.9057  168.9157 O.3     1  UNL1       -0.4684
     22 C         139.2305  139.1421  157.3132 C.3     1  UNL1        0.0912
     23 C         140.1432  139.5933  156.2118 C.3     1  UNL1        0.0386
     24 C         141.0547  140.7652  156.4258 C.3     1  UNL1        0.0739
     25 N         143.1660  141.2835  160.3659 N.pl3   1  UNL1       -0.3049
     26 C         141.9055  142.0463  160.0844 C.3     1  UNL1        0.1081
     27 C         141.2017  141.8736  158.7710 C.3     1  UNL1        0.0938
     28 N         141.7584  140.9380  157.7392 N.3     1  UNL1       -0.2697
     29 C         143.0189  140.1751  158.0207 C.3     1  UNL1        0.0938
     30 C         143.7227  140.3479  159.3341 C.3     1  UNL1        0.1081
     31 C         145.1178  139.2431  164.7280 C.3     1  UNL1        0.0307
     32 C         144.8456  140.4360  163.8603 C.ar    1  UNL1       -0.0246
     33 C         145.2772  141.8018  164.3059 C.ar    1  UNL1       -0.0045
     34 C         145.0050  142.9947  163.4383 C.ar    1  UNL1        0.0009
     35 C         144.3013  142.8220  162.1250 C.ar    1  UNL1        0.0142
     36 C         143.8697  141.4562  161.6793 C.ar    1  UNL1        0.0436
     37 C         144.1419  140.2633  162.5469 C.ar    1  UNL1       -0.0125
     38 C         143.7103  138.8976  162.1012 C.3     1  UNL1        0.0320
@<TRIPOS>BOND
     1    31    32    1
     2    32    33   ar
     3    33    34   ar
     4    34    35   ar
     5    35    36   ar
     6    36    25    1
     7    25    26    1
     8    26    27    1
     9    27    28    1
    10    28    24    1
    11    24    23    1
    12    23    22    1
    13    22     1    1
    14     1     2   am
    15     2     3    2
    16     2     5    1
    17     5     6   ar
    18     6     7   ar
    19     7     8    1
    20     7     9   ar
    21     9    12    1
    22    12    13   ar
    23    13    14   ar
    24    14    15   ar
    25    15    16   ar
    26    16    17   ar
    27    16    18    1
    28    18    19    1
    29    19    20    1
    30    20    21    1
    31     9    10   ar
    32    10    11    1
    33    28    29    1
    34    29    30    1
    35    36    37   ar
    36    37    38    1
    37    37    32   ar
    38    30    25    1
    39    10     5   ar
    40    17    12   ar
    41    21    15    1
    42     1     4    1
@<TRIPOS>MOLECULE
*****
 38 42 0 0 0
SMALL
GASTEIGER

@<TRIPOS>ATOM
      1 N         142.4754  141.4449  157.9468 N.am    1  UNL1       -0.2996
      2 C         143.4620  142.2473  158.7424 C.2     1  UNL1        0.2648
      3 O         144.8368  142.4990  158.1978 O.2     1  UNL1       -0.2684
      4 H         141.5731  141.2797  158.3043 H       1  UNL1        0.1498
      5 C         143.0738  142.7979  160.0826 C.ar    1  UNL1        0.1476
      6 N         142.2151  144.0036  160.3253 N.ar    1  UNL1       -0.2264
      7 C         142.0867  144.1903  161.8081 C.ar    1  UNL1        0.1245
      8 C         141.3146  145.2766  162.4964 C.3     1  UNL1        0.0722
      9 N         142.8660  143.1000  162.4818 N.ar    1  UNL1       -0.2971
     10 C         143.4761  142.2394  161.4154 C.ar    1  UNL1        0.0648
     11 C         144.3372  141.0323  161.6420 C.3     1  UNL1        0.0522
     12 C         143.0100  142.9046  163.9620 C.ar    1  UNL1        0.0680
     13 C         144.1931  143.4797  164.6829 C.ar    1  UNL1        0.0209
     14 C         144.3371  143.2843  166.1631 C.ar    1  UNL1        0.0415
     15 C         143.2981  142.5137  166.9225 C.ar    1  UNL1        0.1725
     16 C         142.1150  141.9386  166.2017 C.ar    1  UNL1        0.1738
     17 C         141.9710  142.1340  164.7214 C.ar    1  UNL1        0.0576
     18 O         141.0760  141.1680  166.9610 O.3     1  UNL1       -0.4683
     19 C         141.2201  140.9726  168.4412 C.3     1  UNL1        0.2526
     20 C         142.4032  141.5478  169.1621 C.3     1  UNL1        0.2526
     21 O         143.4422  142.3183  168.4027 O.3     1  UNL1       -0.4684
     22 C         142.8636  140.8943  156.6066 C.3     1  UNL1        0.0912
     23 C         143.2382  139.4483  156.4698 C.3     1  UNL1        0.0386
     24 C         142.2993  138.3817  156.9500 C.3     1  UNL1        0.0739
     25 N         140.4117  138.7120  161.0216 N.pl3   1  UNL1       -0.3049
     26 C         139.5597  138.8018  159.7904 C.3     1  UNL1        0.1081
     27 C         140.1889  138.6917  158.4332 C.3     1  UNL1        0.0938
     28 N         141.6701  138.4918  158.3072 N.3     1  UNL1       -0.2697
     29 C         142.5222  138.4020  159.5384 C.3     1  UNL1        0.0938
     30 C         141.8930  138.5121  160.8956 C.3     1  UNL1        0.1081
     31 C         138.2777  141.6086  164.7708 C.3     1  UNL1        0.0307
     32 C         138.7155  140.2704  164.2534 C.ar    1  UNL1       -0.0246
     33 C         138.5242  139.0423  165.0932 C.ar    1  UNL1       -0.0045
     34 C         138.9620  137.7042  164.5758 C.ar    1  UNL1        0.0009
     35 C         139.5911  137.5941  163.2187 C.ar    1  UNL1        0.0142
     36 C         139.7825  138.8222  162.3788 C.ar    1  UNL1        0.0436
     37 C         139.3447  140.1603  162.8962 C.ar    1  UNL1       -0.0125
     38 C         139.5361  141.3883  162.0563 C.3     1  UNL1        0.0320
@<TRIPOS>BOND
     1    31    32    1
     2    32    33   ar
     3    33    34   ar
     4    34    35   ar
     5    35    36   ar
     6    36    25    1
     7    25    26    1
     8    26    27    1
     9    27    28    1
    10    28    24    1
    11    24    23    1
    12    23    22    1
    13    22     1    1
    14     1     2   am
    15     2     3    2
    16     2     5    1
    17     5     6   ar
    18     6     7   ar
    19     7     8    1
    20     7     9   ar
    21     9    12    1
    22    12    13   ar
    23    13    14   ar
    24    14    15   ar
    25    15    16   ar
    26    16    17   ar
    27    16    18    1
    28    18    19    1
    29    19    20    1
    30    20    21    1
    31     9    10   ar
    32    10    11    1
    33    28    29    1
    34    29    30    1
    35    36    37   ar
    36    37    38    1
    37    37    32   ar
    38    30    25    1
    39    10     5   ar
    40    17    12   ar
    41    21    15    1
    42     1     4    1
