@<TRIPOS>MOLECULE
*****
 29 32 0 0 0
SMALL
GASTEIGER

@<TRIPOS>ATOM
      1 C         141.8038  143.8747  161.3482 C.2     1  UNL1        0.1518
      2 N         143.1745  144.3792  161.6896 N.2     1  UNL1       -0.1775
      3 C         141.1309  142.8712  162.2372 C.ar    1  UNL1        0.0237
      4 C         141.3358  141.4040  162.0016 C.ar    1  UNL1        0.0030
      5 C         140.6629  140.4006  162.8907 C.ar    1  UNL1        0.0184
      6 C         139.7853  140.8643  164.0153 C.ar    1  UNL1        0.1056
      7 C         139.5804  142.3315  164.2508 C.ar    1  UNL1        0.0184
      8 C         140.2533  143.3349  163.3618 C.ar    1  UNL1        0.0030
      9 S         139.1124  139.8608  164.9043 S.O2    1  UNL1        0.0070
     10 O         137.8093  140.1169  164.2071 O.2     1  UNL1       -0.1687
     11 O         140.4156  139.6047  165.6015 O.2     1  UNL1       -0.1687
     12 C         138.4396  138.8574  165.7933 C.3     1  UNL1        0.1339
     13 C         137.6364  138.5408  167.0199 C.3     1  UNL1        0.0257
     14 C         138.0774  137.4359  166.1064 C.3     1  UNL1        0.0257
     15 N         143.8724  143.8802  162.9201 N.pl3   1  UNL1       -0.2327
     16 C         143.8133  144.5057  164.2821 C.3     1  UNL1        0.1110
     17 C         144.6563  143.6802  165.2083 C.3     1  UNL1        0.0250
     18 C         145.2363  142.5443  164.4187 C.3     1  UNL1        0.0250
     19 C         144.7519  142.6679  163.0045 C.3     1  UNL1        0.1110
     20 N         141.8539  145.2009  159.1146 N.am    1  UNL1       -0.2593
     21 C         141.1059  144.3736  160.1177 C.2     1  UNL1        0.2702
     22 O         139.6600  144.0454  159.8904 O.2     1  UNL1       -0.2681
     23 H         142.8029  145.4163  159.2638 H       1  UNL1        0.1571
     24 C         140.6596  146.1715  154.0636 C.3     1  UNL1        0.0399
     25 C         140.6071  146.1460  155.5625 C.ar    1  UNL1        0.0293
     26 C         139.5570  146.7893  156.4190 C.ar    1  UNL1        0.1030
     27 N         139.8963  146.5136  157.8539 N.ar    1  UNL1       -0.2227
     28 C         141.1560  145.6998  157.8842 C.ar    1  UNL1        0.1655
     29 S         141.5953  145.4727  156.4680 S.2     1  UNL1       -0.0557
@<TRIPOS>BOND
     1    24    25    1
     2    25    26   ar
     3    26    27   ar
     4    27    28   ar
     5    28    20    1
     6    20    21   am
     7    21    22    2
     8    21     1    1
     9     1     2    2
    10     2    15    1
    11    15    16    1
    12    16    17    1
    13    17    18    1
    14    18    19    1
    15     1     3    1
    16     3     4   ar
    17     4     5   ar
    18     5     6   ar
    19     6     9    1
    20     9    10    2
    21     9    11    2
    22     9    12    1
    23    12    13    1
    24    13    14    1
    25     6     7   ar
    26     7     8   ar
    27    28    29   ar
    28    29    25   ar
    29    19    15    1
    30     8     3   ar
    31    14    12    1
    32    20    23    1
@<TRIPOS>MOLECULE
*****
 29 32 0 0 0
SMALL
GASTEIGER

@<TRIPOS>ATOM
      1 C         143.4139  140.0688  160.3821 C.2     1  UNL1        0.1518
      2 N         144.4627  141.1147  160.6193 N.2     1  UNL1       -0.1775
      3 C         142.4482  139.7140  161.4737 C.ar    1  UNL1        0.0237
      4 C         141.1571  140.4660  161.6065 C.ar    1  UNL1        0.0030
      5 C         140.1915  140.1112  162.6980 C.ar    1  UNL1        0.0184
      6 C         140.5168  139.0043  163.6567 C.ar    1  UNL1        0.1056
      7 C         141.8079  138.2524  163.5239 C.ar    1  UNL1        0.0184
      8 C         142.7735  138.6072  162.4324 C.ar    1  UNL1        0.0030
      9 S         139.5511  138.6495  164.7483 S.O2    1  UNL1        0.0070
     10 O         140.6441  138.8007  165.7644 O.2     1  UNL1       -0.1687
     11 O         138.4581  138.4983  163.7323 O.2     1  UNL1       -0.1687
     12 C         138.5854  138.2947  165.8399 C.3     1  UNL1        0.1339
     13 C         137.7233  138.7067  166.9962 C.3     1  UNL1        0.0257
     14 C         137.7749  137.2682  166.5743 C.3     1  UNL1        0.0257
     15 N         144.5457  141.8057  161.9481 N.pl3   1  UNL1       -0.2327
     16 C         143.8534  143.0825  162.3227 C.3     1  UNL1        0.1110
     17 C         144.2155  143.4071  163.7417 C.3     1  UNL1        0.0250
     18 C         145.1317  142.3308  164.2441 C.3     1  UNL1        0.0250
     19 C         145.3358  141.3411  163.1356 C.3     1  UNL1        0.1110
     20 N         142.4217  138.1978  158.8772 N.am    1  UNL1       -0.2593
     21 C         143.3309  139.3778  159.0533 C.2     1  UNL1        0.2702
     22 O         144.1569  139.8668  157.9007 O.2     1  UNL1       -0.2681
     23 H         141.8795  137.8768  159.6336 H       1  UNL1        0.1571
     24 C         140.5648  136.2820  154.3206 C.3     1  UNL1        0.0399
     25 C         141.4851  136.6262  155.4540 C.ar    1  UNL1        0.0293
     26 C         142.9365  136.2606  155.5534 C.ar    1  UNL1        0.1030
     27 N         143.4640  136.8049  156.8478 N.ar    1  UNL1       -0.2227
     28 C         142.3386  137.5068  157.5484 C.ar    1  UNL1        0.1655
     29 S         141.1156  137.3963  156.6870 S.2     1  UNL1       -0.0557
@<TRIPOS>BOND
     1    24    25    1
     2    25    26   ar
     3    26    27   ar
     4    27    28   ar
     5    28    20    1
     6    20    21   am
     7    21    22    2
     8    21     1    1
     9     1     2    2
    10     2    15    1
    11    15    16    1
    12    16    17    1
    13    17    18    1
    14    18    19    1
    15     1     3    1
    16     3     4   ar
    17     4     5   ar
    18     5     6   ar
    19     6     9    1
    20     9    10    2
    21     9    11    2
    22     9    12    1
    23    12    13    1
    24    13    14    1
    25     6     7   ar
    26     7     8   ar
    27    28    29   ar
    28    29    25   ar
    29    19    15    1
    30     8     3   ar
    31    14    12    1
    32    20    23    1
@<TRIPOS>MOLECULE
*****
 29 32 0 0 0
SMALL
GASTEIGER

@<TRIPOS>ATOM
      1 C         140.0330  140.5138  161.9799 C.2     1  UNL1        0.1518
      2 N         139.2682  141.7465  161.5984 N.2     1  UNL1       -0.1775
      3 C         140.4996  140.3282  163.3934 C.ar    1  UNL1        0.0237
      4 C         139.6165  139.6380  164.3902 C.ar    1  UNL1        0.0030
      5 C         140.0831  139.4524  165.8036 C.ar    1  UNL1        0.0184
      6 C         141.4329  139.9569  166.2202 C.ar    1  UNL1        0.1056
      7 C         142.3161  140.6471  165.2234 C.ar    1  UNL1        0.0184
      8 C         141.8494  140.8327  163.8100 C.ar    1  UNL1        0.0030
      9 S         141.8995  139.7713  167.6337 S.O2    1  UNL1        0.0070
     10 O         143.1004  139.0212  167.1387 O.2     1  UNL1       -0.1687
     11 O         140.6986  140.5214  168.1287 O.2     1  UNL1       -0.1687
     12 C         142.3662  139.5856  169.0471 C.3     1  UNL1        0.1339
     13 C         142.8823  140.1640  170.3313 C.3     1  UNL1        0.0257
     14 C         142.6583  138.6857  170.2110 C.3     1  UNL1        0.0257
     15 N         138.9700  142.7935  162.6304 N.pl3   1  UNL1       -0.2327
     16 C         137.7429  142.8595  163.4905 C.3     1  UNL1        0.1110
     17 C         137.8611  144.0651  164.3750 C.3     1  UNL1        0.0250
     18 C         139.1613  144.7444  164.0616 C.3     1  UNL1        0.0250
     19 C         139.8466  143.9584  162.9833 C.3     1  UNL1        0.1110
     20 N         140.9827  139.8537  159.6534 N.am    1  UNL1       -0.2593
     21 C         140.3312  139.4668  160.9480 C.2     1  UNL1        0.2702
     22 O         139.9779  138.0328  161.2107 O.2     1  UNL1       -0.2681
     23 H         141.2146  140.7949  159.4810 H       1  UNL1        0.1571
     24 C         140.4833  136.5333  155.5784 C.3     1  UNL1        0.0399
     25 C         141.0513  137.2805  156.7484 C.ar    1  UNL1        0.0293
     26 C         142.4282  137.1105  157.3189 C.ar    1  UNL1        0.1030
     27 N         142.5701  138.0538  158.4765 N.ar    1  UNL1       -0.2227
     28 C         141.2809  138.8067  158.6216 C.ar    1  UNL1        0.1655
     29 S         140.3423  138.3288  157.5536 S.2     1  UNL1       -0.0557
@<TRIPOS>BOND
     1    24    25    1
     2    25    26   ar
     3    26    27   ar
     4    27    28   ar
     5    28    20    1
     6    20    21   am
     7    21    22    2
     8    21     1    1
     9     1     2    2
    10     2    15    1
    11    15    16    1
    12    16    17    1
    13    17    18    1
    14    18    19    1
    15     1     3    1
    16     3     4   ar
    17     4     5   ar
    18     5     6   ar
    19     6     9    1
    20     9    10    2
    21     9    11    2
    22     9    12    1
    23    12    13    1
    24    13    14    1
    25     6     7   ar
    26     7     8   ar
    27    28    29   ar
    28    29    25   ar
    29    19    15    1
    30     8     3   ar
    31    14    12    1
    32    20    23    1
@<TRIPOS>MOLECULE
*****
 29 32 0 0 0
SMALL
GASTEIGER

@<TRIPOS>ATOM
      1 C         140.8168  141.7619  162.2204 C.2     1  UNL1        0.1518
      2 N         140.4647  140.4146  161.6628 N.2     1  UNL1       -0.1775
      3 C         141.0940  141.9178  163.6863 C.ar    1  UNL1        0.0237
      4 C         139.9667  142.1887  164.6380 C.ar    1  UNL1        0.0030
      5 C         140.2438  142.3446  166.1039 C.ar    1  UNL1        0.0184
      6 C         141.6482  142.2296  166.6181 C.ar    1  UNL1        0.1056
      7 C         142.7755  141.9587  165.6664 C.ar    1  UNL1        0.0184
      8 C         142.4984  141.8028  164.2005 C.ar    1  UNL1        0.0030
      9 S         141.9253  142.3855  168.0840 S.O2    1  UNL1        0.0070
     10 O         140.4542  142.5096  168.3489 O.2     1  UNL1       -0.1687
     11 O         143.3965  142.2615  167.8192 O.2     1  UNL1       -0.1687
     12 C         142.2024  142.5414  169.5499 C.3     1  UNL1        0.1339
     13 C         141.9655  142.1172  170.9690 C.3     1  UNL1        0.0257
     14 C         142.9192  143.2357  170.6699 C.3     1  UNL1        0.0257
     15 N         140.3896  139.2233  162.5712 N.pl3   1  UNL1       -0.2327
     16 C         139.1827  138.7770  163.3422 C.3     1  UNL1        0.1110
     17 C         139.5555  137.5470  164.1155 C.3     1  UNL1        0.0250
     18 C         140.9927  137.2331  163.8226 C.3     1  UNL1        0.0250
     19 C         141.5082  138.2691  162.8681 C.3     1  UNL1        0.1110
     20 N         141.1352  142.7630  159.8441 N.am    1  UNL1       -0.2593
     21 C         140.8919  142.9532  161.3120 C.2     1  UNL1        0.2702
     22 O         140.7238  144.3347  161.8715 O.2     1  UNL1       -0.2681
     23 H         141.2455  141.8562  159.4769 H       1  UNL1        0.1571
     24 C         139.7887  146.6209  156.4998 C.3     1  UNL1        0.0399
     25 C         140.5913  145.7276  157.3986 C.ar    1  UNL1        0.0293
     26 C         142.0603  145.8475  157.6774 C.ar    1  UNL1        0.1030
     27 N         142.4428  144.7516  158.6274 N.ar    1  UNL1       -0.2227
     28 C         141.2103  143.9543  158.9358 C.ar    1  UNL1        0.1655
     29 S         140.0660  144.5575  158.1763 S.2     1  UNL1       -0.0557
@<TRIPOS>BOND
     1    24    25    1
     2    25    26   ar
     3    26    27   ar
     4    27    28   ar
     5    28    20    1
     6    20    21   am
     7    21    22    2
     8    21     1    1
     9     1     2    2
    10     2    15    1
    11    15    16    1
    12    16    17    1
    13    17    18    1
    14    18    19    1
    15     1     3    1
    16     3     4   ar
    17     4     5   ar
    18     5     6   ar
    19     6     9    1
    20     9    10    2
    21     9    11    2
    22     9    12    1
    23    12    13    1
    24    13    14    1
    25     6     7   ar
    26     7     8   ar
    27    28    29   ar
    28    29    25   ar
    29    19    15    1
    30     8     3   ar
    31    14    12    1
    32    20    23    1
@<TRIPOS>MOLECULE
*****
 29 32 0 0 0
SMALL
GASTEIGER

@<TRIPOS>ATOM
      1 C         141.0922  141.7116  161.7003 C.2     1  UNL1        0.1518
      2 N         142.5142  141.7771  161.2275 N.2     1  UNL1       -0.1775
      3 C         140.7942  141.4610  163.1489 C.ar    1  UNL1        0.0237
      4 C         140.4238  140.0829  163.6110 C.ar    1  UNL1        0.0030
      5 C         140.1258  139.8325  165.0596 C.ar    1  UNL1        0.0184
      6 C         140.1983  140.9601  166.0461 C.ar    1  UNL1        0.1056
      7 C         140.5687  142.3382  165.5840 C.ar    1  UNL1        0.0184
      8 C         140.8667  142.5887  164.1354 C.ar    1  UNL1        0.0030
      9 S         139.9003  140.7096  167.4947 S.O2    1  UNL1        0.0070
     10 O         139.1948  139.4372  167.1295 O.2     1  UNL1       -0.1687
     11 O         140.6058  141.9819  167.8599 O.2     1  UNL1       -0.1687
     12 C         139.6023  140.4590  168.9433 C.3     1  UNL1        0.1339
     13 C         138.6100  140.3003  170.0568 C.3     1  UNL1        0.0257
     14 C         140.0786  140.1837  170.3388 C.3     1  UNL1        0.0257
     15 N         143.6383  141.5921  162.2034 N.pl3   1  UNL1       -0.2327
     16 C         144.4356  142.6871  162.8479 C.3     1  UNL1        0.1110
     17 C         145.4524  142.0514  163.7490 C.3     1  UNL1        0.0250
     18 C         145.2836  140.5634  163.6614 C.3     1  UNL1        0.0250
     19 C         144.1624  140.2797  162.7062 C.3     1  UNL1        0.1110
     20 N         140.0475  141.2738  159.3621 N.am    1  UNL1       -0.2593
     21 C         139.9681  141.8965  160.7244 C.2     1  UNL1        0.2702
     22 O         138.7647  142.7042  161.1109 O.2     1  UNL1       -0.2681
     23 H         140.8374  140.7437  159.1084 H       1  UNL1        0.1571
     24 C         136.8281  143.3930  155.7531 C.3     1  UNL1        0.0399
     25 C         137.4437  142.4329  156.7273 C.ar    1  UNL1        0.0293
     26 C         136.9438  141.0539  157.0418 C.ar    1  UNL1        0.1030
     27 N         137.8584  140.4520  158.0670 N.ar    1  UNL1       -0.2227
     28 C         138.9235  141.4588  158.3862 C.ar    1  UNL1        0.1655
     29 S         138.6671  142.6831  157.5583 S.2     1  UNL1       -0.0557
@<TRIPOS>BOND
     1    24    25    1
     2    25    26   ar
     3    26    27   ar
     4    27    28   ar
     5    28    20    1
     6    20    21   am
     7    21    22    2
     8    21     1    1
     9     1     2    2
    10     2    15    1
    11    15    16    1
    12    16    17    1
    13    17    18    1
    14    18    19    1
    15     1     3    1
    16     3     4   ar
    17     4     5   ar
    18     5     6   ar
    19     6     9    1
    20     9    10    2
    21     9    11    2
    22     9    12    1
    23    12    13    1
    24    13    14    1
    25     6     7   ar
    26     7     8   ar
    27    28    29   ar
    28    29    25   ar
    29    19    15    1
    30     8     3   ar
    31    14    12    1
    32    20    23    1
@<TRIPOS>MOLECULE
*****
 29 32 0 0 0
SMALL
GASTEIGER

@<TRIPOS>ATOM
      1 C         142.1104  143.3010  161.0251 C.2     1  UNL1        0.1518
      2 N         143.5501  143.6476  161.2645 N.2     1  UNL1       -0.1775
      3 C         141.3873  142.3987  161.9806 C.ar    1  UNL1        0.0237
      4 C         141.4538  140.9107  161.8032 C.ar    1  UNL1        0.0030
      5 C         140.7307  140.0085  162.7587 C.ar    1  UNL1        0.0184
      6 C         139.9410  140.5942  163.8916 C.ar    1  UNL1        0.1056
      7 C         139.8745  142.0821  164.0689 C.ar    1  UNL1        0.0184
      8 C         140.5976  142.9844  163.1134 C.ar    1  UNL1        0.0030
      9 S         139.2179  139.6919  164.8471 S.O2    1  UNL1        0.0070
     10 O         140.5135  139.3851  165.5379 O.2     1  UNL1       -0.1687
     11 O         137.9223  139.9986  164.1563 O.2     1  UNL1       -0.1687
     12 C         138.4948  138.7896  165.8025 C.3     1  UNL1        0.1339
     13 C         138.0338  137.4180  166.1978 C.3     1  UNL1        0.0257
     14 C         137.7034  138.5983  167.0623 C.3     1  UNL1        0.0257
     15 N         144.2666  143.0918  162.4594 N.pl3   1  UNL1       -0.2327
     16 C         144.1964  143.6290  163.8582 C.3     1  UNL1        0.1110
     17 C         145.0655  142.7704  164.7286 C.3     1  UNL1        0.0250
     18 C         145.6728  141.7026  163.8677 C.3     1  UNL1        0.0250
     19 C         145.1790  141.9012  162.4654 C.3     1  UNL1        0.1110
     20 N         140.9056  142.9346  158.7525 N.am    1  UNL1       -0.2593
     21 C         141.3939  143.8568  159.8302 C.2     1  UNL1        0.2702
     22 O         141.1656  145.3347  159.7130 O.2     1  UNL1       -0.2681
     23 H         141.0555  141.9646  158.8295 H       1  UNL1        0.1571
     24 C         137.1566  143.9887  155.1868 C.3     1  UNL1        0.0399
     25 C         138.4659  143.9749  155.9187 C.ar    1  UNL1        0.0293
     26 C         139.7072  144.7163  155.5192 C.ar    1  UNL1        0.1030
     27 N         140.7722  144.4168  156.5322 N.ar    1  UNL1       -0.2227
     28 C         140.1891  143.4904  157.5577 C.ar    1  UNL1        0.1655
     29 S         138.7638  143.2172  157.1785 S.2     1  UNL1       -0.0557
@<TRIPOS>BOND
     1    24    25    1
     2    25    26   ar
     3    26    27   ar
     4    27    28   ar
     5    28    20    1
     6    20    21   am
     7    21    22    2
     8    21     1    1
     9     1     2    2
    10     2    15    1
    11    15    16    1
    12    16    17    1
    13    17    18    1
    14    18    19    1
    15     1     3    1
    16     3     4   ar
    17     4     5   ar
    18     5     6   ar
    19     6     9    1
    20     9    10    2
    21     9    11    2
    22     9    12    1
    23    12    13    1
    24    13    14    1
    25     6     7   ar
    26     7     8   ar
    27    28    29   ar
    28    29    25   ar
    29    19    15    1
    30     8     3   ar
    31    14    12    1
    32    20    23    1
@<TRIPOS>MOLECULE
*****
 29 32 0 0 0
SMALL
GASTEIGER

@<TRIPOS>ATOM
      1 C         141.1007  140.2436  164.1038 C.2     1  UNL1        0.1518
      2 N         141.7545  138.9012  163.9601 N.2     1  UNL1       -0.1775
      3 C         141.1221  141.2144  162.9604 C.ar    1  UNL1        0.0237
      4 C         142.1338  142.3215  162.9354 C.ar    1  UNL1        0.0030
      5 C         142.1551  143.2923  161.7921 C.ar    1  UNL1        0.0184
      6 C         141.1647  143.1559  160.6739 C.ar    1  UNL1        0.1056
      7 C         140.1530  142.0488  160.6989 C.ar    1  UNL1        0.0184
      8 C         140.1317  141.0780  161.8422 C.ar    1  UNL1        0.0030
      9 S         141.1860  144.1267  159.5305 S.O2    1  UNL1        0.0070
     10 O         140.5604  143.0933  158.6414 O.2     1  UNL1       -0.1687
     11 O         141.8116  145.1602  160.4197 O.2     1  UNL1       -0.1687
     12 C         141.2073  145.0975  158.3873 C.3     1  UNL1        0.1339
     13 C         141.9655  145.8375  157.3254 C.3     1  UNL1        0.0257
     14 C         140.4860  146.0389  157.4688 C.3     1  UNL1        0.0257
     15 N         142.4297  138.5297  162.6731 N.pl3   1  UNL1       -0.2327
     16 C         141.7976  137.8017  161.5240 C.3     1  UNL1        0.1110
     17 C         142.8327  137.6430  160.4501 C.3     1  UNL1        0.0250
     18 C         144.1046  138.2730  160.9354 C.3     1  UNL1        0.0250
     19 C         143.8555  138.8210  162.3093 C.3     1  UNL1        0.1110
     20 N         141.0623  140.2596  166.7015 N.am    1  UNL1       -0.2593
     21 C         140.4256  140.6151  165.3907 C.2     1  UNL1        0.2702
     22 O         139.1139  141.3422  165.3668 O.2     1  UNL1       -0.2681
     23 H         141.9233  139.7824  166.7172 H       1  UNL1        0.1571
     24 C         139.5732  142.9415  170.9993 C.3     1  UNL1        0.0399
     25 C         139.7027  141.8639  169.9639 C.ar    1  UNL1        0.0293
     26 C         138.9939  140.5419  169.9737 C.ar    1  UNL1        0.1030
     27 N         139.4170  139.7801  168.7528 N.ar    1  UNL1       -0.2227
     28 C         140.3872  140.6311  167.9884 C.ar    1  UNL1        0.1655
     29 S         140.5638  141.9190  168.7369 S.2     1  UNL1       -0.0557
@<TRIPOS>BOND
     1    24    25    1
     2    25    26   ar
     3    26    27   ar
     4    27    28   ar
     5    28    20    1
     6    20    21   am
     7    21    22    2
     8    21     1    1
     9     1     2    2
    10     2    15    1
    11    15    16    1
    12    16    17    1
    13    17    18    1
    14    18    19    1
    15     1     3    1
    16     3     4   ar
    17     4     5   ar
    18     5     6   ar
    19     6     9    1
    20     9    10    2
    21     9    11    2
    22     9    12    1
    23    12    13    1
    24    13    14    1
    25     6     7   ar
    26     7     8   ar
    27    28    29   ar
    28    29    25   ar
    29    19    15    1
    30     8     3   ar
    31    14    12    1
    32    20    23    1
@<TRIPOS>MOLECULE
*****
 29 32 0 0 0
SMALL
GASTEIGER

@<TRIPOS>ATOM
      1 C         141.8085  141.3816  161.3524 C.2     1  UNL1        0.1518
      2 N         140.4047  141.3689  160.8240 N.2     1  UNL1       -0.1775
      3 C         142.0556  141.5661  162.8204 C.ar    1  UNL1        0.0237
      4 C         142.1251  140.3719  163.7252 C.ar    1  UNL1        0.0030
      5 C         142.3723  140.5565  165.1932 C.ar    1  UNL1        0.0184
      6 C         142.5499  141.9354  165.7562 C.ar    1  UNL1        0.1056
      7 C         142.4803  143.1297  164.8514 C.ar    1  UNL1        0.0184
      8 C         142.2332  142.9451  163.3835 C.ar    1  UNL1        0.0030
      9 S         142.7970  142.1200  167.2242 S.O2    1  UNL1        0.0070
     10 O         143.9225  143.0625  166.9162 O.2     1  UNL1       -0.1687
     11 O         141.6715  141.1775  167.5322 O.2     1  UNL1       -0.1687
     12 C         143.0442  142.3046  168.6921 C.3     1  UNL1        0.1339
     13 C         143.8578  142.0163  169.9188 C.3     1  UNL1        0.0257
     14 C         142.6586  142.9128  170.0079 C.3     1  UNL1        0.0257
     15 N         139.2481  141.5409  161.7635 N.pl3   1  UNL1       -0.2327
     16 C         138.6123  142.8433  162.1502 C.3     1  UNL1        0.1110
     17 C         137.4955  142.5479  163.1070 C.3     1  UNL1        0.0250
     18 C         137.4410  141.0629  163.3117 C.3     1  UNL1        0.0250
     19 C         138.5241  140.4405  162.4813 C.3     1  UNL1        0.1110
     20 N         142.8156  141.5722  158.9651 N.am    1  UNL1       -0.2593
     21 C         142.9651  141.2096  160.4129 C.2     1  UNL1        0.2702
     22 O         144.2712  140.6751  160.9213 O.2     1  UNL1       -0.2681
     23 H         141.9584  141.9230  158.6314 H       1  UNL1        0.1571
     24 C         147.2432  142.4741  156.2331 C.3     1  UNL1        0.0399
     25 C         146.0074  141.8149  156.7698 C.ar    1  UNL1        0.0293
     26 C         145.4968  140.4565  156.3899 C.ar    1  UNL1        0.1030
     27 N         144.2391  140.2003  157.1660 N.ar    1  UNL1       -0.2227
     28 C         143.9722  141.4003  158.0256 C.ar    1  UNL1        0.1655
     29 S         145.0651  142.3981  157.7807 S.2     1  UNL1       -0.0557
@<TRIPOS>BOND
     1    24    25    1
     2    25    26   ar
     3    26    27   ar
     4    27    28   ar
     5    28    20    1
     6    20    21   am
     7    21    22    2
     8    21     1    1
     9     1     2    2
    10     2    15    1
    11    15    16    1
    12    16    17    1
    13    17    18    1
    14    18    19    1
    15     1     3    1
    16     3     4   ar
    17     4     5   ar
    18     5     6   ar
    19     6     9    1
    20     9    10    2
    21     9    11    2
    22     9    12    1
    23    12    13    1
    24    13    14    1
    25     6     7   ar
    26     7     8   ar
    27    28    29   ar
    28    29    25   ar
    29    19    15    1
    30     8     3   ar
    31    14    12    1
    32    20    23    1
@<TRIPOS>MOLECULE
*****
 29 32 0 0 0
SMALL
GASTEIGER

@<TRIPOS>ATOM
      1 C         142.8700  138.3187  157.2660 C.2     1  UNL1        0.1518
      2 N         143.1809  139.6244  156.5962 N.2     1  UNL1       -0.1775
      3 C         142.1627  138.3041  158.5888 C.ar    1  UNL1        0.0237
      4 C         142.9339  138.0446  159.8488 C.ar    1  UNL1        0.0030
      5 C         142.2266  138.0299  161.1715 C.ar    1  UNL1        0.0184
      6 C         140.7480  138.2749  161.2341 C.ar    1  UNL1        0.1056
      7 C         139.9768  138.5344  159.9740 C.ar    1  UNL1        0.0184
      8 C         140.6842  138.5490  158.6514 C.ar    1  UNL1        0.0030
      9 S         140.0407  138.2602  162.5568 S.O2    1  UNL1        0.0070
     10 O         141.3176  138.6443  163.2438 O.2     1  UNL1       -0.1687
     11 O         138.7638  137.8762  161.8698 O.2     1  UNL1       -0.1687
     12 C         139.3335  138.2456  163.8795 C.3     1  UNL1        0.1339
     13 C         138.9025  137.5107  165.1140 C.3     1  UNL1        0.0257
     14 C         138.5395  138.9552  164.9359 C.3     1  UNL1        0.0257
     15 N         142.7844  140.9154  157.2491 N.pl3   1  UNL1       -0.2327
     16 C         141.5441  141.7067  156.9570 C.3     1  UNL1        0.1110
     17 C         141.5519  142.9221  157.8361 C.3     1  UNL1        0.0250
     18 C         142.7970  142.8819  158.6716 C.3     1  UNL1        0.0250
     19 C         143.5588  141.6417  158.3089 C.3     1  UNL1        0.1110
     20 N         142.4687  135.7830  156.8670 N.am    1  UNL1       -0.2593
     21 C         143.2664  137.0278  156.6132 C.2     1  UNL1        0.2702
     22 O         144.4605  136.9815  155.7066 O.2     1  UNL1       -0.2681
     23 H         141.6850  135.8134  157.4620 H       1  UNL1        0.1571
     24 C         144.8113  131.1468  155.9192 C.3     1  UNL1        0.0399
     25 C         143.9419  132.3610  155.7785 C.ar    1  UNL1        0.0293
     26 C         143.0084  132.6499  154.6405 C.ar    1  UNL1        0.1030
     27 N         142.3429  133.9670  154.9097 N.ar    1  UNL1       -0.2227
     28 C         142.8651  134.4921  156.2141 C.ar    1  UNL1        0.1655
     29 S         143.8534  133.4995  156.7511 S.2     1  UNL1       -0.0557
@<TRIPOS>BOND
     1    24    25    1
     2    25    26   ar
     3    26    27   ar
     4    27    28   ar
     5    28    20    1
     6    20    21   am
     7    21    22    2
     8    21     1    1
     9     1     2    2
    10     2    15    1
    11    15    16    1
    12    16    17    1
    13    17    18    1
    14    18    19    1
    15     1     3    1
    16     3     4   ar
    17     4     5   ar
    18     5     6   ar
    19     6     9    1
    20     9    10    2
    21     9    11    2
    22     9    12    1
    23    12    13    1
    24    13    14    1
    25     6     7   ar
    26     7     8   ar
    27    28    29   ar
    28    29    25   ar
    29    19    15    1
    30     8     3   ar
    31    14    12    1
    32    20    23    1
