@<TRIPOS>MOLECULE
*****
 32 36 0 0 0
SMALL
GASTEIGER

@<TRIPOS>ATOM
      1 C         143.2467  143.4010  162.8400 C.2     1  UNL1        0.1157
      2 N         143.4312  143.5203  161.3561 N.2     1  UNL1       -0.1790
      3 N         142.0745  143.6478  160.7292 N.pl3   1  UNL1       -0.2061
      4 C         141.6384  143.7956  159.3016 C.ar    1  UNL1        0.1038
      5 C         142.6614  143.8361  158.2053 C.ar    1  UNL1        0.0308
      6 C         142.2253  143.9839  156.7777 C.ar    1  UNL1        0.0592
      7 CL        143.2483  144.0244  155.6814 Cl      1  UNL1       -0.0822
      8 C         140.7663  144.0911  156.4465 C.ar    1  UNL1        0.0146
      9 C         139.7433  144.0505  157.5427 C.ar    1  UNL1        0.0391
     10 C         140.1794  143.9028  158.9703 C.ar    1  UNL1        0.1536
     11 O         139.1564  143.8622  160.0667 O.3     1  UNL1       -0.4723
     12 C         139.5925  143.7145  161.4942 C.3     1  UNL1        0.2277
     13 C         141.0515  143.6072  161.8255 C.3     1  UNL1        0.1488
     14 C         141.7760  143.4547  163.1300 C.3     1  UNL1        0.0806
     15 C         140.3965  143.4775  163.7186 C.ar    1  UNL1       -0.0157
     16 C         139.5284  142.2566  163.6425 C.ar    1  UNL1       -0.0039
     17 C         138.1488  142.2794  164.2311 C.ar    1  UNL1       -0.0003
     18 C         137.6373  143.5231  164.8956 C.ar    1  UNL1       -0.0000
     19 C         138.5054  144.7440  164.9717 C.ar    1  UNL1       -0.0003
     20 C         139.8850  144.7213  164.3831 C.ar    1  UNL1       -0.0039
     21 C         145.2382  142.0522  163.8223 C.3     1  UNL1        0.0786
     22 C         144.3409  143.2537  163.8555 C.2     1  UNL1        0.1887
     23 O         144.5377  144.3080  164.9041 O.2     1  UNL1       -0.2900
     24 C         142.2121  143.3069  164.5577 C.3     1  UNL1        0.0130
     25 C         141.7962  142.1018  165.3480 C.3     1  UNL1        0.0181
     26 C         142.5663  141.7057  166.5727 C.3     1  UNL1        0.0723
     27 N         142.1906  142.2709  167.9104 N.3     1  UNL1       -0.2685
     28 C         140.7924  142.7566  168.1534 C.3     1  UNL1        0.1046
     29 C         140.4166  143.3218  169.4911 C.3     1  UNL1        0.1595
     30 O         141.4391  143.4013  170.5858 O.3     1  UNL1       -0.3508
     31 C         142.8373  142.9156  170.3427 C.3     1  UNL1        0.1595
     32 C         143.2131  142.3504  169.0050 C.3     1  UNL1        0.1046
@<TRIPOS>BOND
     1    21    22    1
     2    22    23    2
     3    22     1    1
     4     1     2    2
     5     2     3    1
     6     3     4    1
     7     4     5   ar
     8     5     6   ar
     9     6     7    1
    10     6     8   ar
    11     8     9   ar
    12     9    10   ar
    13    10    11    1
    14    11    12    1
    15    13    12    1
    16    13    14    1
    17    14    24    1
    18    24    25    1
    19    25    26    1
    20    26    27    1
    21    27    28    1
    22    28    29    1
    23    29    30    1
    24    30    31    1
    25    31    32    1
    26    14    15    1
    27    15    16   ar
    28    16    17   ar
    29    17    18   ar
    30    18    19   ar
    31    19    20   ar
    32    14     1    1
    33    32    27    1
    34    20    15   ar
    35    13     3    1
    36    10     4   ar
@<TRIPOS>MOLECULE
*****
 32 36 0 0 0
SMALL
GASTEIGER

@<TRIPOS>ATOM
      1 C         143.2953  143.2059  162.8815 C.2     1  UNL1        0.1157
      2 N         143.4761  143.3166  161.3965 N.2     1  UNL1       -0.1790
      3 N         142.1240  143.5169  160.7787 N.pl3   1  UNL1       -0.2061
      4 C         141.6871  143.6890  159.3540 C.ar    1  UNL1        0.1038
      5 C         142.7034  143.6759  158.2510 C.ar    1  UNL1        0.0308
      6 C         142.2664  143.8480  156.8265 C.ar    1  UNL1        0.0592
      7 CL        143.2829  143.8350  155.7233 Cl      1  UNL1       -0.0822
      8 C         140.8131  144.0332  156.5050 C.ar    1  UNL1        0.0146
      9 C         139.7967  144.0463  157.6080 C.ar    1  UNL1        0.0391
     10 C         140.2337  143.8742  159.0325 C.ar    1  UNL1        0.1536
     11 O         139.2173  143.8873  160.1357 O.3     1  UNL1       -0.4723
     12 C         139.6543  143.7151  161.5602 C.3     1  UNL1        0.2277
     13 C         141.1076  143.5299  161.8817 C.3     1  UNL1        0.1488
     14 C         141.8316  143.3378  163.1813 C.3     1  UNL1        0.0806
     15 C         140.4591  143.4336  163.7790 C.ar    1  UNL1       -0.0157
     16 C         140.0087  144.7119  164.4218 C.ar    1  UNL1       -0.0039
     17 C         138.6362  144.8078  165.0195 C.ar    1  UNL1       -0.0003
     18 C         137.7142  143.6254  164.9745 C.ar    1  UNL1       -0.0000
     19 C         138.1647  142.3472  164.3317 C.ar    1  UNL1       -0.0003
     20 C         139.5372  142.2512  163.7340 C.ar    1  UNL1       -0.0039
     21 C         145.2241  141.7559  163.8445 C.3     1  UNL1        0.0786
     22 C         144.3868  142.9996  163.8896 C.2     1  UNL1        0.1887
     23 O         144.6409  144.0371  164.9427 O.2     1  UNL1       -0.2900
     24 C         142.2685  143.1656  164.6060 C.3     1  UNL1        0.0130
     25 C         141.8323  141.9595  165.3837 C.3     1  UNL1        0.0181
     26 C         142.5498  141.5810  166.6454 C.3     1  UNL1        0.0723
     27 N         142.1758  142.2307  167.9447 N.3     1  UNL1       -0.2685
     28 C         143.1856  142.3353  169.0489 C.3     1  UNL1        0.1046
     29 C         142.8117  142.9850  170.3481 C.3     1  UNL1        0.1595
     30 O         141.4279  143.5301  170.5432 O.3     1  UNL1       -0.3508
     31 C         140.4180  143.4254  169.4390 C.3     1  UNL1        0.1595
     32 C         140.7920  142.7757  168.1397 C.3     1  UNL1        0.1046
@<TRIPOS>BOND
     1    21    22    1
     2    22    23    2
     3    22     1    1
     4     1     2    2
     5     2     3    1
     6     3     4    1
     7     4     5   ar
     8     5     6   ar
     9     6     7    1
    10     6     8   ar
    11     8     9   ar
    12     9    10   ar
    13    10    11    1
    14    11    12    1
    15    13    12    1
    16    13    14    1
    17    14    24    1
    18    24    25    1
    19    25    26    1
    20    26    27    1
    21    27    28    1
    22    28    29    1
    23    29    30    1
    24    30    31    1
    25    31    32    1
    26    14    15    1
    27    15    16   ar
    28    16    17   ar
    29    17    18   ar
    30    18    19   ar
    31    19    20   ar
    32    14     1    1
    33    32    27    1
    34    20    15   ar
    35    13     3    1
    36    10     4   ar
@<TRIPOS>MOLECULE
*****
 32 36 0 0 0
SMALL
GASTEIGER

@<TRIPOS>ATOM
      1 C         139.5218  144.0058  163.3391 C.2     1  UNL1        0.1157
      2 N         139.3284  144.5787  161.9664 N.2     1  UNL1       -0.1790
      3 N         140.5770  144.3204  161.1763 N.pl3   1  UNL1       -0.2061
      4 C         140.9599  144.6576  159.7657 C.ar    1  UNL1        0.1038
      5 C         139.9949  145.3901  158.8813 C.ar    1  UNL1        0.0308
      6 C         140.3778  145.7273  157.4708 C.ar    1  UNL1        0.0592
      7 CL        139.4127  146.4599  156.5864 Cl      1  UNL1       -0.0822
      8 C         141.7257  145.3320  156.9446 C.ar    1  UNL1        0.0146
      9 C         142.6907  144.5995  157.8290 C.ar    1  UNL1        0.0391
     10 C         142.3078  144.2623  159.2395 C.ar    1  UNL1        0.1536
     11 O         143.2728  143.5298  160.1240 O.3     1  UNL1       -0.4723
     12 C         142.8899  143.1926  161.5345 C.3     1  UNL1        0.2277
     13 C         141.5420  143.5879  162.0607 C.3     1  UNL1        0.1488
     14 C         140.8898  143.3934  163.3974 C.3     1  UNL1        0.0806
     15 C         142.1778  142.7106  163.7506 C.ar    1  UNL1       -0.0157
     16 C         143.2461  143.4605  164.4897 C.ar    1  UNL1       -0.0039
     17 C         144.5342  142.7777  164.8429 C.ar    1  UNL1       -0.0003
     18 C         144.7539  141.3449  164.4569 C.ar    1  UNL1       -0.0000
     19 C         143.6856  140.5950  163.7178 C.ar    1  UNL1       -0.0003
     20 C         142.3975  141.2778  163.3646 C.ar    1  UNL1       -0.0039
     21 C         138.6593  145.0520  165.5554 C.3     1  UNL1        0.0786
     22 C         138.5224  144.0394  164.4573 C.2     1  UNL1        0.1887
     23 O         137.3862  143.0602  164.4774 O.2     1  UNL1       -0.2900
     24 C         140.5069  143.0562  164.8080 C.3     1  UNL1        0.0130
     25 C         140.3327  141.6233  165.2157 C.3     1  UNL1        0.0181
     26 C         140.1324  141.2737  166.6605 C.3     1  UNL1        0.0723
     27 N         141.0026  141.8980  167.7109 N.3     1  UNL1       -0.2685
     28 C         140.3950  142.7798  168.7612 C.3     1  UNL1        0.1046
     29 C         141.2650  143.4041  169.8115 C.3     1  UNL1        0.1595
     30 O         142.7428  143.1467  169.8115 O.3     1  UNL1       -0.3508
     31 C         143.3505  142.2649  168.7611 C.3     1  UNL1        0.1595
     32 C         142.4803  141.6406  167.7108 C.3     1  UNL1        0.1046
@<TRIPOS>BOND
     1    21    22    1
     2    22    23    2
     3    22     1    1
     4     1     2    2
     5     2     3    1
     6     3     4    1
     7     4     5   ar
     8     5     6   ar
     9     6     7    1
    10     6     8   ar
    11     8     9   ar
    12     9    10   ar
    13    10    11    1
    14    11    12    1
    15    13    12    1
    16    13    14    1
    17    14    24    1
    18    24    25    1
    19    25    26    1
    20    26    27    1
    21    27    28    1
    22    28    29    1
    23    29    30    1
    24    30    31    1
    25    31    32    1
    26    14    15    1
    27    15    16   ar
    28    16    17   ar
    29    17    18   ar
    30    18    19   ar
    31    19    20   ar
    32    14     1    1
    33    32    27    1
    34    20    15   ar
    35    13     3    1
    36    10     4   ar
@<TRIPOS>MOLECULE
*****
 32 36 0 0 0
SMALL
GASTEIGER

@<TRIPOS>ATOM
      1 C         139.5744  144.2003  163.2580 C.2     1  UNL1        0.1157
      2 N         139.3596  144.7441  161.8767 N.2     1  UNL1       -0.1790
      3 N         140.5926  144.4616  161.0705 N.pl3   1  UNL1       -0.2061
      4 C         140.9520  144.7657  159.6462 C.ar    1  UNL1        0.1038
      5 C         139.9752  145.4840  158.7632 C.ar    1  UNL1        0.0308
      6 C         140.3347  145.7881  157.3390 C.ar    1  UNL1        0.0592
      7 CL        139.3579  146.5065  156.4559 Cl      1  UNL1       -0.0822
      8 C         141.6710  145.3738  156.7979 C.ar    1  UNL1        0.0146
      9 C         142.6477  144.6554  157.6809 C.ar    1  UNL1        0.0391
     10 C         142.2883  144.3514  159.1051 C.ar    1  UNL1        0.1536
     11 O         143.2650  143.6329  159.9882 O.3     1  UNL1       -0.4723
     12 C         142.9056  143.3289  161.4124 C.3     1  UNL1        0.2277
     13 C         141.5693  143.7432  161.9535 C.3     1  UNL1        0.1488
     14 C         140.9401  143.5817  163.3055 C.3     1  UNL1        0.0806
     15 C         142.2306  142.8995  163.6508 C.ar    1  UNL1       -0.0157
     16 C         142.4516  141.4692  163.2568 C.ar    1  UNL1       -0.0039
     17 C         143.7422  140.7869  163.6020 C.ar    1  UNL1       -0.0003
     18 C         144.8117  141.5351  164.3412 C.ar    1  UNL1       -0.0000
     19 C         144.5907  142.9655  164.7352 C.ar    1  UNL1       -0.0003
     20 C         143.3001  143.6477  164.3900 C.ar    1  UNL1       -0.0039
     21 C         137.3568  143.4184  164.3630 C.3     1  UNL1        0.0786
     22 C         138.5953  144.2639  164.3927 C.2     1  UNL1        0.1887
     23 O         138.8549  145.1732  165.5571 O.2     1  UNL1       -0.2900
     24 C         140.5806  143.2776  164.7298 C.3     1  UNL1        0.0130
     25 C         140.5151  141.8545  165.1993 C.3     1  UNL1        0.0181
     26 C         140.1706  141.5510  166.6273 C.3     1  UNL1        0.0723
     27 N         141.0044  142.1196  167.7371 N.3     1  UNL1       -0.2685
     28 C         142.4927  141.9324  167.7285 C.3     1  UNL1        0.1046
     29 C         143.3265  142.5009  168.8382 C.3     1  UNL1        0.1595
     30 O         142.6721  143.2566  169.9566 O.3     1  UNL1       -0.3508
     31 C         141.1838  143.4438  169.9652 C.3     1  UNL1        0.1595
     32 C         140.3500  142.8752  168.8554 C.3     1  UNL1        0.1046
@<TRIPOS>BOND
     1    21    22    1
     2    22    23    2
     3    22     1    1
     4     1     2    2
     5     2     3    1
     6     3     4    1
     7     4     5   ar
     8     5     6   ar
     9     6     7    1
    10     6     8   ar
    11     8     9   ar
    12     9    10   ar
    13    10    11    1
    14    11    12    1
    15    13    12    1
    16    13    14    1
    17    14    24    1
    18    24    25    1
    19    25    26    1
    20    26    27    1
    21    27    28    1
    22    28    29    1
    23    29    30    1
    24    30    31    1
    25    31    32    1
    26    14    15    1
    27    15    16   ar
    28    16    17   ar
    29    17    18   ar
    30    18    19   ar
    31    19    20   ar
    32    14     1    1
    33    32    27    1
    34    20    15   ar
    35    13     3    1
    36    10     4   ar
@<TRIPOS>MOLECULE
*****
 32 36 0 0 0
SMALL
GASTEIGER

@<TRIPOS>ATOM
      1 C         140.5728  138.8167  164.1311 C.2     1  UNL1        0.1157
      2 N         139.8436  138.9187  165.4379 N.2     1  UNL1       -0.1790
      3 N         140.5498  139.9356  166.2846 N.pl3   1  UNL1       -0.2061
      4 C         140.2819  140.4502  167.6680 C.ar    1  UNL1        0.1038
      5 C         139.1163  139.9236  168.4515 C.ar    1  UNL1        0.0308
      6 C         138.8485  140.4382  169.8347 C.ar    1  UNL1        0.0592
      7 CL        137.6828  139.9116  170.6183 Cl      1  UNL1       -0.0822
      8 C         139.7464  141.4794  170.4345 C.ar    1  UNL1        0.0146
      9 C         140.9120  142.0060  169.6510 C.ar    1  UNL1        0.0391
     10 C         141.1798  141.4914  168.2678 C.ar    1  UNL1        0.1536
     11 O         142.3455  142.0180  167.4842 O.3     1  UNL1       -0.4723
     12 C         142.6133  141.5035  166.1009 C.3     1  UNL1        0.2277
     13 C         141.7154  140.4623  165.5012 C.3     1  UNL1        0.1488
     14 C         141.7297  139.7707  164.1702 C.3     1  UNL1        0.0806
     15 C         142.9425  140.6171  163.9201 C.ar    1  UNL1       -0.0157
     16 C         144.3128  140.0211  164.0501 C.ar    1  UNL1       -0.0039
     17 C         145.5258  140.8675  163.7999 C.ar    1  UNL1       -0.0003
     18 C         145.3683  142.3100  163.4198 C.ar    1  UNL1       -0.0000
     19 C         143.9980  142.9060  163.2898 C.ar    1  UNL1       -0.0003
     20 C         142.7850  142.0596  163.5399 C.ar    1  UNL1       -0.0039
     21 C         138.8593  138.0336  162.3420 C.3     1  UNL1        0.0786
     22 C         140.2090  137.9185  162.9861 C.2     1  UNL1        0.1887
     23 O         141.1950  136.9050  162.4853 O.2     1  UNL1       -0.2900
     24 C         141.9975  139.2561  162.7868 C.3     1  UNL1        0.0130
     25 C         142.1057  140.2145  161.6380 C.3     1  UNL1        0.0181
     26 C         140.8881  140.5615  160.8336 C.3     1  UNL1        0.0723
     27 N         140.1098  141.8044  161.1492 N.3     1  UNL1       -0.2685
     28 C         140.6307  143.1444  160.7213 C.3     1  UNL1        0.1046
     29 C         139.8525  144.3872  161.0369 C.3     1  UNL1        0.1595
     30 O         138.5533  144.2901  161.7804 O.3     1  UNL1       -0.3508
     31 C         138.0324  142.9501  162.2083 C.3     1  UNL1        0.1595
     32 C         138.8107  141.7072  161.8927 C.3     1  UNL1        0.1046
@<TRIPOS>BOND
     1    21    22    1
     2    22    23    2
     3    22     1    1
     4     1     2    2
     5     2     3    1
     6     3     4    1
     7     4     5   ar
     8     5     6   ar
     9     6     7    1
    10     6     8   ar
    11     8     9   ar
    12     9    10   ar
    13    10    11    1
    14    11    12    1
    15    13    12    1
    16    13    14    1
    17    14    24    1
    18    24    25    1
    19    25    26    1
    20    26    27    1
    21    27    28    1
    22    28    29    1
    23    29    30    1
    24    30    31    1
    25    31    32    1
    26    14    15    1
    27    15    16   ar
    28    16    17   ar
    29    17    18   ar
    30    18    19   ar
    31    19    20   ar
    32    14     1    1
    33    32    27    1
    34    20    15   ar
    35    13     3    1
    36    10     4   ar
@<TRIPOS>MOLECULE
*****
 32 36 0 0 0
SMALL
GASTEIGER

@<TRIPOS>ATOM
      1 C         143.6801  139.6964  163.0039 C.2     1  UNL1        0.1157
      2 N         143.7743  139.3817  161.5403 N.2     1  UNL1       -0.1790
      3 N         142.3854  139.1400  161.0279 N.pl3   1  UNL1       -0.2061
      4 C         141.8651  138.7907  159.6651 C.ar    1  UNL1        0.1038
      5 C         142.8176  138.6254  158.5182 C.ar    1  UNL1        0.0308
      6 C         142.2973  138.2762  157.1555 C.ar    1  UNL1        0.0592
      7 CL        143.2498  138.1109  156.0085 Cl      1  UNL1       -0.0822
      8 C         140.8243  138.0922  156.9395 C.ar    1  UNL1        0.0146
      9 C         139.8718  138.2574  158.0864 C.ar    1  UNL1        0.0391
     10 C         140.3922  138.6067  159.4491 C.ar    1  UNL1        0.1536
     11 O         139.4396  138.7720  160.5961 O.3     1  UNL1       -0.4723
     12 C         139.9599  139.1212  161.9588 C.3     1  UNL1        0.2277
     13 C         141.4329  139.3053  162.1748 C.3     1  UNL1        0.1488
     14 C         142.2330  139.6491  163.3960 C.3     1  UNL1        0.0806
     15 C         140.8947  139.6749  164.0730 C.ar    1  UNL1       -0.0157
     16 C         140.4396  138.4952  164.8799 C.ar    1  UNL1       -0.0039
     17 C         139.1013  138.5209  165.5570 C.ar    1  UNL1       -0.0003
     18 C         138.2181  139.7263  165.4271 C.ar    1  UNL1       -0.0000
     19 C         138.6732  140.9061  164.6202 C.ar    1  UNL1       -0.0003
     20 C         140.0116  140.8804  163.9432 C.ar    1  UNL1       -0.0039
     21 C         145.5793  141.2960  163.7685 C.3     1  UNL1        0.0786
     22 C         144.8310  140.0043  163.9154 C.2     1  UNL1        0.1887
     23 O         145.2334  139.0205  164.9738 O.2     1  UNL1       -0.2900
     24 C         142.7534  139.9984  164.7589 C.3     1  UNL1        0.0130
     25 C         142.4488  141.3399  165.3569 C.3     1  UNL1        0.0181
     26 C         142.7559  141.6045  166.8010 C.3     1  UNL1        0.0723
     27 N         141.9525  140.9315  167.8742 N.3     1  UNL1       -0.2685
     28 C         140.4638  141.1098  167.9197 C.3     1  UNL1        0.1046
     29 C         139.6603  140.4369  168.9928 C.3     1  UNL1        0.1595
     30 O         140.3455  139.5857  170.0205 O.3     1  UNL1       -0.3508
     31 C         141.8342  139.4075  169.9750 C.3     1  UNL1        0.1595
     32 C         142.6376  140.0804  168.9018 C.3     1  UNL1        0.1046
@<TRIPOS>BOND
     1    21    22    1
     2    22    23    2
     3    22     1    1
     4     1     2    2
     5     2     3    1
     6     3     4    1
     7     4     5   ar
     8     5     6   ar
     9     6     7    1
    10     6     8   ar
    11     8     9   ar
    12     9    10   ar
    13    10    11    1
    14    11    12    1
    15    13    12    1
    16    13    14    1
    17    14    24    1
    18    24    25    1
    19    25    26    1
    20    26    27    1
    21    27    28    1
    22    28    29    1
    23    29    30    1
    24    30    31    1
    25    31    32    1
    26    14    15    1
    27    15    16   ar
    28    16    17   ar
    29    17    18   ar
    30    18    19   ar
    31    19    20   ar
    32    14     1    1
    33    32    27    1
    34    20    15   ar
    35    13     3    1
    36    10     4   ar
@<TRIPOS>MOLECULE
*****
 32 36 0 0 0
SMALL
GASTEIGER

@<TRIPOS>ATOM
      1 C         143.3769  140.6988  163.6690 C.2     1  UNL1        0.1157
      2 N         143.4172  140.0319  165.0120 N.2     1  UNL1       -0.1790
      3 N         142.3998  140.6972  165.8906 N.pl3   1  UNL1       -0.2061
      4 C         141.9962  140.4605  167.3158 C.ar    1  UNL1        0.1038
      5 C         142.6653  139.3824  168.1157 C.ar    1  UNL1        0.0308
      6 C         142.2617  139.1458  169.5408 C.ar    1  UNL1        0.0592
      7 CL        142.9309  138.0676  170.3408 Cl      1  UNL1       -0.0822
      8 C         141.1889  139.9873  170.1661 C.ar    1  UNL1        0.0146
      9 C         140.5197  141.0654  169.3662 C.ar    1  UNL1        0.0391
     10 C         140.9234  141.3020  167.9411 C.ar    1  UNL1        0.1536
     11 O         140.2542  142.3802  167.1412 O.3     1  UNL1       -0.4723
     12 C         140.6578  142.6168  165.7160 C.3     1  UNL1        0.2277
     13 C         141.7306  141.7753  165.0907 C.3     1  UNL1        0.1488
     14 C         142.3345  141.7763  163.7177 C.3     1  UNL1        0.0806
     15 C         141.3765  142.9033  163.4684 C.ar    1  UNL1       -0.0157
     16 C         139.9199  142.6159  163.2543 C.ar    1  UNL1       -0.0039
     17 C         138.9618  143.7429  163.0051 C.ar    1  UNL1       -0.0003
     18 C         139.4604  145.1572  162.9699 C.ar    1  UNL1       -0.0000
     19 C         140.9169  145.4446  163.1840 C.ar    1  UNL1       -0.0003
     20 C         141.8750  144.3176  163.4333 C.ar    1  UNL1       -0.0039
     21 C         144.0357  139.0388  161.7820 C.3     1  UNL1        0.0786
     22 C         144.2294  140.3496  162.4851 C.2     1  UNL1        0.1887
     23 O         145.2755  141.3111  162.0045 O.2     1  UNL1       -0.2900
     24 C         142.7381  142.0130  162.2925 C.3     1  UNL1        0.0130
     25 C         141.6998  142.0190  161.2100 C.3     1  UNL1        0.0181
     26 C         141.3367  140.7419  160.5120 C.3     1  UNL1        0.0723
     27 N         140.1490  139.9483  160.9700 N.3     1  UNL1       -0.2685
     28 C         140.3337  138.8036  161.9216 C.3     1  UNL1        0.1046
     29 C         139.1461  138.0100  162.3796 C.3     1  UNL1        0.1595
     30 O         137.7738  138.3610  161.8861 O.3     1  UNL1       -0.3508
     31 C         137.5891  139.5058  160.9345 C.3     1  UNL1        0.1595
     32 C         138.7768  140.2994  160.4765 C.3     1  UNL1        0.1046
@<TRIPOS>BOND
     1    21    22    1
     2    22    23    2
     3    22     1    1
     4     1     2    2
     5     2     3    1
     6     3     4    1
     7     4     5   ar
     8     5     6   ar
     9     6     7    1
    10     6     8   ar
    11     8     9   ar
    12     9    10   ar
    13    10    11    1
    14    11    12    1
    15    13    12    1
    16    13    14    1
    17    14    24    1
    18    24    25    1
    19    25    26    1
    20    26    27    1
    21    27    28    1
    22    28    29    1
    23    29    30    1
    24    30    31    1
    25    31    32    1
    26    14    15    1
    27    15    16   ar
    28    16    17   ar
    29    17    18   ar
    30    18    19   ar
    31    19    20   ar
    32    14     1    1
    33    32    27    1
    34    20    15   ar
    35    13     3    1
    36    10     4   ar
@<TRIPOS>MOLECULE
*****
 32 36 0 0 0
SMALL
GASTEIGER

@<TRIPOS>ATOM
      1 C         139.4286  143.3165  163.1394 C.2     1  UNL1        0.1157
      2 N         139.1878  143.5439  161.6764 N.2     1  UNL1       -0.1790
      3 N         139.0931  142.2041  161.0086 N.pl3   1  UNL1       -0.2061
      4 C         138.8644  141.8088  159.5798 C.ar    1  UNL1        0.1038
      5 C         138.6821  142.8641  158.5296 C.ar    1  UNL1        0.0308
      6 C         138.4534  142.4688  157.1009 C.ar    1  UNL1        0.0592
      7 CL        138.2711  143.5242  156.0506 Cl      1  UNL1       -0.0822
      8 C         138.4070  141.0181  156.7223 C.ar    1  UNL1        0.0146
      9 C         138.5893  139.9627  157.7725 C.ar    1  UNL1        0.0391
     10 C         138.8179  140.3581  159.2012 C.ar    1  UNL1        0.1536
     11 O         139.0002  139.3027  160.2515 O.3     1  UNL1       -0.4723
     12 C         139.2289  139.6980  161.6802 C.3     1  UNL1        0.2277
     13 C         139.2753  141.1487  162.0588 C.3     1  UNL1        0.1488
     14 C         139.4827  141.8362  163.3757 C.3     1  UNL1        0.0806
     15 C         139.5846  140.4386  163.9108 C.ar    1  UNL1       -0.0157
     16 C         138.4304  139.8340  164.6537 C.ar    1  UNL1       -0.0039
     17 C         138.5322  138.4363  165.1888 C.ar    1  UNL1       -0.0003
     18 C         139.7884  137.6433  164.9809 C.ar    1  UNL1       -0.0000
     19 C         140.9427  138.2480  164.2379 C.ar    1  UNL1       -0.0003
     20 C         140.8408  139.6456  163.7028 C.ar    1  UNL1       -0.0039
     21 C         138.4440  144.7156  165.0947 C.3     1  UNL1        0.0786
     22 C         139.5875  144.3824  164.1829 C.2     1  UNL1        0.1887
     23 O         140.8898  145.1149  164.3145 O.2     1  UNL1       -0.2900
     24 C         139.7114  142.2316  164.8046 C.3     1  UNL1        0.0130
     25 C         140.9843  141.8420  165.4960 C.3     1  UNL1        0.0181
     26 C         141.3588  142.4874  166.7972 C.3     1  UNL1        0.0723
     27 N         140.6309  142.1165  168.0553 N.3     1  UNL1       -0.2685
     28 C         139.9881  140.7669  168.1798 C.3     1  UNL1        0.1046
     29 C         139.2603  140.3960  169.4377 C.3     1  UNL1        0.1595
     30 O         139.1751  141.3747  170.5713 O.3     1  UNL1       -0.3508
     31 C         139.8178  142.7243  170.4468 C.3     1  UNL1        0.1595
     32 C         140.5457  143.0952  169.1888 C.3     1  UNL1        0.1046
@<TRIPOS>BOND
     1    21    22    1
     2    22    23    2
     3    22     1    1
     4     1     2    2
     5     2     3    1
     6     3     4    1
     7     4     5   ar
     8     5     6   ar
     9     6     7    1
    10     6     8   ar
    11     8     9   ar
    12     9    10   ar
    13    10    11    1
    14    11    12    1
    15    13    12    1
    16    13    14    1
    17    14    24    1
    18    24    25    1
    19    25    26    1
    20    26    27    1
    21    27    28    1
    22    28    29    1
    23    29    30    1
    24    30    31    1
    25    31    32    1
    26    14    15    1
    27    15    16   ar
    28    16    17   ar
    29    17    18   ar
    30    18    19   ar
    31    19    20   ar
    32    14     1    1
    33    32    27    1
    34    20    15   ar
    35    13     3    1
    36    10     4   ar
@<TRIPOS>MOLECULE
*****
 32 36 0 0 0
SMALL
GASTEIGER

@<TRIPOS>ATOM
      1 C         139.4840  139.2753  162.8106 C.2     1  UNL1        0.1157
      2 N         139.3337  139.0990  161.3286 N.2     1  UNL1       -0.1790
      3 N         139.0750  140.4477  160.7253 N.pl3   1  UNL1       -0.2061
      4 C         138.8469  140.8867  159.3092 C.ar    1  UNL1        0.1038
      5 C         138.8565  139.8768  158.2001 C.ar    1  UNL1        0.0308
      6 C         138.6284  140.3159  156.7841 C.ar    1  UNL1        0.0592
      7 CL        138.6381  139.3060  155.6749 Cl      1  UNL1       -0.0822
      8 C         138.3907  141.7648  156.4771 C.ar    1  UNL1        0.0146
      9 C         138.3811  142.7746  157.5862 C.ar    1  UNL1        0.0391
     10 C         138.6092  142.3356  159.0022 C.ar    1  UNL1        0.1536
     11 O         138.5996  143.3454  160.1114 O.3     1  UNL1       -0.4723
     12 C         138.8276  142.9064  161.5274 C.3     1  UNL1        0.2277
     13 C         139.0653  141.4575  161.8344 C.3     1  UNL1        0.1488
     14 C         139.3181  140.7329  163.1232 C.3     1  UNL1        0.0806
     15 C         139.2000  142.0988  163.7318 C.ar    1  UNL1       -0.0157
     16 C         137.8895  142.5553  164.3013 C.ar    1  UNL1       -0.0039
     17 C         137.7713  143.9212  164.9099 C.ar    1  UNL1       -0.0003
     18 C         138.9635  144.8306  164.9491 C.ar    1  UNL1       -0.0000
     19 C         140.2740  144.3741  164.3797 C.ar    1  UNL1       -0.0003
     20 C         140.3922  143.0082  163.7710 C.ar    1  UNL1       -0.0039
     21 C         141.0777  137.4818  163.8074 C.3     1  UNL1        0.0786
     22 C         139.7529  138.1852  163.8054 C.2     1  UNL1        0.1887
     23 O         138.6970  137.7987  164.7982 O.2     1  UNL1       -0.2900
     24 C         139.5462  140.2939  164.5393 C.3     1  UNL1        0.0130
     25 C         140.7792  140.7338  165.2715 C.3     1  UNL1        0.0181
     26 C         141.0615  140.2087  166.6479 C.3     1  UNL1        0.0723
     27 N         140.5997  140.9745  167.8522 N.3     1  UNL1       -0.2685
     28 C         140.9476  142.4265  167.9964 C.3     1  UNL1        0.1046
     29 C         140.4858  143.1923  169.2006 C.3     1  UNL1        0.1595
     30 O         139.6761  142.5062  170.2608 O.3     1  UNL1       -0.3508
     31 C         139.3283  141.0543  170.1166 C.3     1  UNL1        0.1595
     32 C         139.7901  140.2884  168.9123 C.3     1  UNL1        0.1046
@<TRIPOS>BOND
     1    21    22    1
     2    22    23    2
     3    22     1    1
     4     1     2    2
     5     2     3    1
     6     3     4    1
     7     4     5   ar
     8     5     6   ar
     9     6     7    1
    10     6     8   ar
    11     8     9   ar
    12     9    10   ar
    13    10    11    1
    14    11    12    1
    15    13    12    1
    16    13    14    1
    17    14    24    1
    18    24    25    1
    19    25    26    1
    20    26    27    1
    21    27    28    1
    22    28    29    1
    23    29    30    1
    24    30    31    1
    25    31    32    1
    26    14    15    1
    27    15    16   ar
    28    16    17   ar
    29    17    18   ar
    30    18    19   ar
    31    19    20   ar
    32    14     1    1
    33    32    27    1
    34    20    15   ar
    35    13     3    1
    36    10     4   ar
