@<TRIPOS>MOLECULE
*****
 38 42 0 0 0
SMALL
GASTEIGER

@<TRIPOS>ATOM
      1 N         140.2996  140.9590  161.3178 N.am    1  UNL1       -0.2794
      2 C         139.7998  139.6227  160.8548 C.2     1  UNL1        0.2495
      3 O         138.6155  138.9915  161.5250 O.2     1  UNL1       -0.2698
      4 H         141.0769  141.3732  160.8779 H       1  UNL1        0.1552
      5 N         138.1006  142.9204  160.7546 N.pl3   1  UNL1       -0.3560
      6 C         138.5157  142.6449  162.1694 C.ar    1  UNL1        0.0552
      7 C         137.8312  143.3501  163.3026 C.ar    1  UNL1        0.0153
      8 C         138.2464  143.0745  164.7175 C.ar    1  UNL1        0.0013
      9 C         139.3458  142.0938  164.9991 C.ar    1  UNL1        0.0013
     10 C         140.0303  141.3887  163.8659 C.ar    1  UNL1        0.0159
     11 C         139.6152  141.6642  162.4510 C.ar    1  UNL1        0.0636
     12 H         137.3789  143.5640  160.5697 H       1  UNL1        0.1424
     13 H         138.5498  142.4575  160.0108 H       1  UNL1        0.1424
     14 C         139.7610  141.8183  166.4140 C.ar    1  UNL1        0.0002
     15 C         139.5869  140.4455  166.9929 C.ar    1  UNL1        0.0023
     16 C         140.0020  140.1700  168.4077 C.ar    1  UNL1        0.0296
     17 C         140.5913  141.2673  169.2436 C.ar    1  UNL1        0.1401
     18 F         141.0064  140.9918  170.6585 F       1  UNL1       -0.2042
     19 C         140.7653  142.6401  168.6647 C.ar    1  UNL1        0.0296
     20 C         140.3502  142.9156  167.2499 C.ar    1  UNL1        0.0023
     21 C         140.4842  138.9174  159.7215 C.ar    1  UNL1        0.0537
     22 C         141.9156  138.4906  159.8587 C.ar    1  UNL1        0.0042
     23 C         142.5999  137.7853  158.7254 C.ar    1  UNL1       -0.0028
     24 C         141.8527  137.5068  157.4549 C.ar    1  UNL1       -0.0061
     25 C         140.4212  137.9335  157.3177 C.ar    1  UNL1       -0.0028
     26 C         139.7370  138.6388  158.4510 C.ar    1  UNL1        0.0042
     27 C         142.5370  136.8015  156.3217 C.3     1  UNL1        0.0991
     28 N         142.4769  135.3059  156.2234 N.3     1  UNL1       -0.2690
     29 C         143.3535  134.4608  157.0994 C.3     1  UNL1        0.0724
     30 C         143.2932  132.9652  157.0011 C.3     1  UNL1        0.0188
     31 C         142.3565  132.3148  156.0268 C.3     1  UNL1        0.0185
     32 C         141.4741  131.5267  155.1047 C.3     1  UNL1        0.0185
     33 C         141.7404  130.0696  155.3413 C.3     1  UNL1        0.0686
     34 N         142.7873  129.9572  156.4096 N.3     1  UNL1       -0.2975
     35 C         143.1681  131.3448  156.8333 C.3     1  UNL1        0.0686
     36 C         141.4799  133.1599  155.1508 C.3     1  UNL1        0.0188
     37 C         141.5401  134.6555  155.2491 C.3     1  UNL1        0.0724
     38 H         143.6053  129.4705  156.0429 H       1  UNL1        0.1232
@<TRIPOS>BOND
     1     5     6    1
     2     6     7   ar
     3     7     8   ar
     4     8     9   ar
     5     9    14    1
     6    14    15   ar
     7    15    16   ar
     8    16    17   ar
     9    17    18    1
    10    17    19   ar
    11    19    20   ar
    12     9    10   ar
    13    10    11   ar
    14    11     1    1
    15     1     2   am
    16     2     3    2
    17     2    21    1
    18    21    22   ar
    19    22    23   ar
    20    23    24   ar
    21    24    27    1
    22    27    28    1
    23    28    29    1
    24    29    30    1
    25    30    31    1
    26    31    32    1
    27    32    33    1
    28    33    34    1
    29    34    35    1
    30    31    36    1
    31    36    37    1
    32    24    25   ar
    33    25    26   ar
    34    11     6   ar
    35    26    21   ar
    36    20    14   ar
    37    37    28    1
    38    35    31    1
    39     5    12    1
    40     5    13    1
    41     1     4    1
    42    34    38    1
@<TRIPOS>MOLECULE
*****
 38 42 0 0 0
SMALL
GASTEIGER

@<TRIPOS>ATOM
      1 N         140.3187  140.9737  161.2654 N.am    1  UNL1       -0.2794
      2 C         139.8291  139.6220  160.8373 C.2     1  UNL1        0.2495
      3 O         138.6670  138.9874  161.5422 O.2     1  UNL1       -0.2698
      4 H         141.0815  141.3902  160.8028 H       1  UNL1        0.1552
      5 N         138.1881  143.0083  160.6989 N.pl3   1  UNL1       -0.3560
      6 C         138.5809  142.7080  162.1151 C.ar    1  UNL1        0.0552
      7 C         137.9084  143.4251  163.2480 C.ar    1  UNL1        0.0153
      8 C         138.3013  143.1248  164.6642 C.ar    1  UNL1        0.0013
      9 C         139.3665  142.1076  164.9474 C.ar    1  UNL1        0.0013
     10 C         140.0390  141.3905  163.8145 C.ar    1  UNL1        0.0159
     11 C         139.6462  141.6907  162.3983 C.ar    1  UNL1        0.0636
     12 H         137.4889  143.6759  160.5130 H       1  UNL1        0.1424
     13 H         138.6295  142.5376  159.9553 H       1  UNL1        0.1424
     14 C         139.7594  141.8073  166.3636 C.ar    1  UNL1        0.0002
     15 C         140.4168  142.8649  167.2000 C.ar    1  UNL1        0.0023
     16 C         140.8096  142.5646  168.6161 C.ar    1  UNL1        0.0296
     17 C         140.5451  141.2067  169.1959 C.ar    1  UNL1        0.1401
     18 F         140.9379  140.9064  170.6121 F       1  UNL1       -0.2042
     19 C         139.8877  140.1491  168.3596 C.ar    1  UNL1        0.0296
     20 C         139.4949  140.4495  166.9434 C.ar    1  UNL1        0.0023
     21 C         140.5016  138.9048  159.7044 C.ar    1  UNL1        0.0537
     22 C         141.9466  138.5177  159.8140 C.ar    1  UNL1        0.0042
     23 C         142.6189  137.8005  158.6811 C.ar    1  UNL1       -0.0028
     24 C         141.8463  137.4705  157.4385 C.ar    1  UNL1       -0.0061
     25 C         140.4012  137.8576  157.3288 C.ar    1  UNL1       -0.0028
     26 C         139.7289  138.5748  158.4618 C.ar    1  UNL1        0.0042
     27 C         142.5187  136.7533  156.3056 C.3     1  UNL1        0.0991
     28 N         142.4886  135.2549  156.2433 N.3     1  UNL1       -0.2690
     29 C         141.5656  134.5623  155.2849 C.3     1  UNL1        0.0724
     30 C         141.5357  133.0639  155.2227 C.3     1  UNL1        0.0188
     31 C         142.4287  132.2580  156.1188 C.3     1  UNL1        0.0185
     32 C         143.2594  131.3244  156.9484 C.3     1  UNL1        0.0185
     33 C         142.9068  129.9196  156.5583 C.3     1  UNL1        0.0686
     34 N         141.8583  129.9850  155.4877 N.3     1  UNL1       -0.2975
     35 C         141.5628  131.4303  155.2160 C.3     1  UNL1        0.0686
     36 C         143.3517  132.9506  157.0772 C.3     1  UNL1        0.0188
     37 C         143.3817  134.4490  157.1394 C.3     1  UNL1        0.0724
     38 H         141.0115  129.5119  155.8031 H       1  UNL1        0.1232
@<TRIPOS>BOND
     1     5     6    1
     2     6     7   ar
     3     7     8   ar
     4     8     9   ar
     5     9    14    1
     6    14    15   ar
     7    15    16   ar
     8    16    17   ar
     9    17    18    1
    10    17    19   ar
    11    19    20   ar
    12     9    10   ar
    13    10    11   ar
    14    11     1    1
    15     1     2   am
    16     2     3    2
    17     2    21    1
    18    21    22   ar
    19    22    23   ar
    20    23    24   ar
    21    24    27    1
    22    27    28    1
    23    28    29    1
    24    29    30    1
    25    30    31    1
    26    31    32    1
    27    32    33    1
    28    33    34    1
    29    34    35    1
    30    31    36    1
    31    36    37    1
    32    24    25   ar
    33    25    26   ar
    34    11     6   ar
    35    26    21   ar
    36    20    14   ar
    37    37    28    1
    38    35    31    1
    39     5    12    1
    40     5    13    1
    41     1     4    1
    42    34    38    1
@<TRIPOS>MOLECULE
*****
 38 42 0 0 0
SMALL
GASTEIGER

@<TRIPOS>ATOM
      1 N         142.9757  138.0117  159.9870 N.am    1  UNL1       -0.2794
      2 C         141.9208  138.2478  161.0269 C.2     1  UNL1        0.2495
      3 O         140.4899  138.4308  160.6156 O.2     1  UNL1       -0.2698
      4 H         143.9148  137.8916  160.2569 H       1  UNL1        0.1552
      5 N         142.0797  140.5037  158.5773 N.pl3   1  UNL1       -0.3560
      6 C         142.1518  139.2045  157.8310 C.ar    1  UNL1        0.0552
      7 C         141.7759  139.1514  156.3799 C.ar    1  UNL1        0.0153
      8 C         141.8479  137.8521  155.6336 C.ar    1  UNL1        0.0013
      9 C         142.2959  136.6062  156.3384 C.ar    1  UNL1        0.0013
     10 C         142.6718  136.6594  157.7896 C.ar    1  UNL1        0.0159
     11 C         142.5998  137.9585  158.5359 C.ar    1  UNL1        0.0636
     12 H         141.7857  141.3215  158.1147 H       1  UNL1        0.1424
     13 H         142.3265  140.5386  159.5298 H       1  UNL1        0.1424
     14 C         142.3680  135.3070  155.5921 C.ar    1  UNL1        0.0002
     15 C         142.0905  135.2721  154.1184 C.ar    1  UNL1        0.0023
     16 C         142.1626  133.9728  153.3722 C.ar    1  UNL1        0.0296
     17 C         142.5122  132.7085  154.0997 C.ar    1  UNL1        0.1401
     18 F         142.5842  131.4093  153.3535 F       1  UNL1       -0.2042
     19 C         142.7897  132.7434  155.5734 C.ar    1  UNL1        0.0296
     20 C         142.7176  134.0427  156.3196 C.ar    1  UNL1        0.0023
     21 C         142.2966  138.3010  162.4781 C.ar    1  UNL1        0.0537
     22 C         141.4314  137.6282  163.5022 C.ar    1  UNL1        0.0042
     23 C         141.8073  137.6815  164.9533 C.ar    1  UNL1       -0.0028
     24 C         143.0485  138.4074  165.3804 C.ar    1  UNL1       -0.0061
     25 C         143.9138  139.0802  164.3563 C.ar    1  UNL1       -0.0028
     26 C         143.5378  139.0270  162.9052 C.ar    1  UNL1        0.0042
     27 C         143.4243  138.4606  166.8315 C.3     1  UNL1        0.0991
     28 N         142.6928  139.3816  167.7625 N.3     1  UNL1       -0.2690
     29 C         142.6406  139.0779  169.2305 C.3     1  UNL1        0.0724
     30 C         141.9090  139.9990  170.1614 C.3     1  UNL1        0.0188
     31 C         141.2297  141.2237  169.6243 C.3     1  UNL1        0.0185
     32 C         140.5068  142.4790  169.2348 C.3     1  UNL1        0.0185
     33 C         139.9230  143.0823  170.4779 C.3     1  UNL1        0.0686
     34 N         140.2851  142.1998  171.6356 N.3     1  UNL1       -0.2975
     35 C         141.0927  141.0512  171.1080 C.3     1  UNL1        0.0686
     36 C         141.2819  141.5274  168.1563 C.3     1  UNL1        0.0188
     37 C         142.0135  140.6064  167.2254 C.3     1  UNL1        0.0724
     38 H         139.4375  141.8505  172.0829 H       1  UNL1        0.1232
@<TRIPOS>BOND
     1     5     6    1
     2     6     7   ar
     3     7     8   ar
     4     8     9   ar
     5     9    14    1
     6    14    15   ar
     7    15    16   ar
     8    16    17   ar
     9    17    18    1
    10    17    19   ar
    11    19    20   ar
    12     9    10   ar
    13    10    11   ar
    14    11     1    1
    15     1     2   am
    16     2     3    2
    17     2    21    1
    18    21    22   ar
    19    22    23   ar
    20    23    24   ar
    21    24    27    1
    22    27    28    1
    23    28    29    1
    24    29    30    1
    25    30    31    1
    26    31    32    1
    27    32    33    1
    28    33    34    1
    29    34    35    1
    30    31    36    1
    31    36    37    1
    32    24    25   ar
    33    25    26   ar
    34    11     6   ar
    35    26    21   ar
    36    20    14   ar
    37    37    28    1
    38    35    31    1
    39     5    12    1
    40     5    13    1
    41     1     4    1
    42    34    38    1
@<TRIPOS>MOLECULE
*****
 38 42 0 0 0
SMALL
GASTEIGER

@<TRIPOS>ATOM
      1 N         141.2848  144.3959  161.4685 N.am    1  UNL1       -0.2794
      2 C         141.3455  143.5606  160.2241 C.2     1  UNL1        0.2495
      3 O         141.7747  142.1255  160.3043 O.2     1  UNL1       -0.2698
      4 H         141.0032  145.3378  161.4158 H       1  UNL1        0.1552
      5 N         143.8635  145.1620  162.7966 N.pl3   1  UNL1       -0.3560
      6 C         142.9426  144.1792  163.4571 C.ar    1  UNL1        0.0552
      7 C         143.3111  143.5795  164.7817 C.ar    1  UNL1        0.0153
      8 C         142.3902  142.5968  165.4422 C.ar    1  UNL1        0.0013
      9 C         141.1010  142.2138  164.7782 C.ar    1  UNL1        0.0013
     10 C         140.7325  142.8135  163.4536 C.ar    1  UNL1        0.0159
     11 C         141.6533  143.7962  162.7931 C.ar    1  UNL1        0.0636
     12 H         144.7097  145.4134  163.2325 H       1  UNL1        0.1424
     13 H         143.6216  145.5556  161.9272 H       1  UNL1        0.1424
     14 C         140.1801  141.2310  165.4387 C.ar    1  UNL1        0.0002
     15 C         140.3604  140.8916  166.8886 C.ar    1  UNL1        0.0023
     16 C         139.4395  139.9089  167.5490 C.ar    1  UNL1        0.0296
     17 C         138.3382  139.2656  166.7595 C.ar    1  UNL1        0.1401
     18 F         137.4173  138.2828  167.4199 F       1  UNL1       -0.2042
     19 C         138.1579  139.6050  165.3096 C.ar    1  UNL1        0.0296
     20 C         139.0788  140.5877  164.6492 C.ar    1  UNL1        0.0023
     21 C         140.9771  144.1602  158.8994 C.ar    1  UNL1        0.0537
     22 C         139.7820  143.6487  158.1509 C.ar    1  UNL1        0.0042
     23 C         139.4136  144.2484  156.8263 C.ar    1  UNL1       -0.0028
     24 C         140.2403  145.3596  156.2501 C.ar    1  UNL1       -0.0061
     25 C         141.4354  145.8710  156.9986 C.ar    1  UNL1       -0.0028
     26 C         141.8037  145.2714  158.3233 C.ar    1  UNL1        0.0042
     27 C         139.8719  145.9592  154.9255 C.3     1  UNL1        0.0991
     28 N         139.6643  147.4398  154.8042 N.3     1  UNL1       -0.2690
     29 C         140.2740  148.1913  153.6581 C.3     1  UNL1        0.0724
     30 C         140.0664  149.6719  153.5368 C.3     1  UNL1        0.0188
     31 C         139.2491  150.4010  154.5617 C.3     1  UNL1        0.0185
     32 C         138.4606  151.2609  155.5044 C.3     1  UNL1        0.0185
     33 C         138.5178  152.6730  155.0017 C.3     1  UNL1        0.0686
     34 N         139.3417  152.6859  153.7483 N.3     1  UNL1       -0.2975
     35 C         139.7937  151.2817  153.4763 C.3     1  UNL1        0.0686
     36 C         138.6394  149.6496  155.7078 C.3     1  UNL1        0.0188
     37 C         138.8470  148.1690  155.8290 C.3     1  UNL1        0.0724
     38 H         140.1522  153.2924  153.8731 H       1  UNL1        0.1232
@<TRIPOS>BOND
     1     5     6    1
     2     6     7   ar
     3     7     8   ar
     4     8     9   ar
     5     9    14    1
     6    14    15   ar
     7    15    16   ar
     8    16    17   ar
     9    17    18    1
    10    17    19   ar
    11    19    20   ar
    12     9    10   ar
    13    10    11   ar
    14    11     1    1
    15     1     2   am
    16     2     3    2
    17     2    21    1
    18    21    22   ar
    19    22    23   ar
    20    23    24   ar
    21    24    27    1
    22    27    28    1
    23    28    29    1
    24    29    30    1
    25    30    31    1
    26    31    32    1
    27    32    33    1
    28    33    34    1
    29    34    35    1
    30    31    36    1
    31    36    37    1
    32    24    25   ar
    33    25    26   ar
    34    11     6   ar
    35    26    21   ar
    36    20    14   ar
    37    37    28    1
    38    35    31    1
    39     5    12    1
    40     5    13    1
    41     1     4    1
    42    34    38    1
@<TRIPOS>MOLECULE
*****
 38 42 0 0 0
SMALL
GASTEIGER

@<TRIPOS>ATOM
      1 N         141.2688  144.1400  159.3612 N.am    1  UNL1       -0.2794
      2 C         140.5290  143.8395  160.6310 C.2     1  UNL1        0.2495
      3 O         139.0293  143.8656  160.6495 O.2     1  UNL1       -0.2698
      4 H         142.2531  144.1228  159.3491 H       1  UNL1        0.1552
      5 N         140.2644  141.9313  157.5968 N.pl3   1  UNL1       -0.3560
      6 C         140.0067  143.3622  157.2276 C.ar    1  UNL1        0.0552
      7 C         139.2468  143.6887  155.9763 C.ar    1  UNL1        0.0153
      8 C         138.9892  145.1196  155.6071 C.ar    1  UNL1        0.0013
      9 C         139.4914  146.2238  156.4893 C.ar    1  UNL1        0.0013
     10 C         140.2513  145.8973  157.7407 C.ar    1  UNL1        0.0159
     11 C         140.5089  144.4665  158.1098 C.ar    1  UNL1        0.0636
     12 H         139.9347  141.2065  157.0178 H       1  UNL1        0.1424
     13 H         140.7631  141.7170  158.4181 H       1  UNL1        0.1424
     14 C         139.2337  147.6548  156.1202 C.ar    1  UNL1        0.0002
     15 C         139.6358  148.1647  154.7680 C.ar    1  UNL1        0.0023
     16 C         139.3781  149.5955  154.3989 C.ar    1  UNL1        0.0296
     17 C         138.7184  150.5165  155.3821 C.ar    1  UNL1        0.1401
     18 F         138.4608  151.9474  155.0130 F       1  UNL1       -0.2042
     19 C         138.3164  150.0066  156.7342 C.ar    1  UNL1        0.0296
     20 C         138.5740  148.5758  157.1033 C.ar    1  UNL1        0.0023
     21 C         141.2888  143.5130  161.8825 C.ar    1  UNL1        0.0537
     22 C         141.4148  144.5362  162.9721 C.ar    1  UNL1        0.0042
     23 C         142.1746  144.2096  164.2234 C.ar    1  UNL1       -0.0028
     24 C         142.8084  142.8597  164.3853 C.ar    1  UNL1       -0.0061
     25 C         142.6824  141.8365  163.2957 C.ar    1  UNL1       -0.0028
     26 C         141.9226  142.1631  162.0443 C.ar    1  UNL1        0.0042
     27 C         143.5682  142.5332  165.6367 C.3     1  UNL1        0.0991
     28 N         142.8366  142.0497  166.8537 N.3     1  UNL1       -0.2690
     29 C         143.3357  142.4102  168.2215 C.3     1  UNL1        0.0724
     30 C         142.6041  141.9267  169.4384 C.3     1  UNL1        0.0188
     31 C         141.3733  141.0827  169.2876 C.3     1  UNL1        0.0185
     32 C         140.1352  140.2359  169.2935 C.3     1  UNL1        0.0185
     33 C         139.7481  139.9910  170.7219 C.3     1  UNL1        0.0686
     34 N         140.7469  140.6865  171.5987 N.3     1  UNL1       -0.2975
     35 C         141.7513  141.3612  170.7122 C.3     1  UNL1        0.0686
     36 C         140.8742  140.7222  167.9198 C.3     1  UNL1        0.0188
     37 C         141.6058  141.2056  166.7029 C.3     1  UNL1        0.0724
     38 H         141.2151  140.0060  172.1971 H       1  UNL1        0.1232
@<TRIPOS>BOND
     1     5     6    1
     2     6     7   ar
     3     7     8   ar
     4     8     9   ar
     5     9    14    1
     6    14    15   ar
     7    15    16   ar
     8    16    17   ar
     9    17    18    1
    10    17    19   ar
    11    19    20   ar
    12     9    10   ar
    13    10    11   ar
    14    11     1    1
    15     1     2   am
    16     2     3    2
    17     2    21    1
    18    21    22   ar
    19    22    23   ar
    20    23    24   ar
    21    24    27    1
    22    27    28    1
    23    28    29    1
    24    29    30    1
    25    30    31    1
    26    31    32    1
    27    32    33    1
    28    33    34    1
    29    34    35    1
    30    31    36    1
    31    36    37    1
    32    24    25   ar
    33    25    26   ar
    34    11     6   ar
    35    26    21   ar
    36    20    14   ar
    37    37    28    1
    38    35    31    1
    39     5    12    1
    40     5    13    1
    41     1     4    1
    42    34    38    1
@<TRIPOS>MOLECULE
*****
 38 42 0 0 0
SMALL
GASTEIGER

@<TRIPOS>ATOM
      1 N         140.0037  140.7138  161.5470 N.am    1  UNL1       -0.2794
      2 C         139.0399  141.6844  160.9314 C.2     1  UNL1        0.2495
      3 O         137.7232  141.9576  161.5960 O.2     1  UNL1       -0.2698
      4 H         140.8679  140.5346  161.1108 H       1  UNL1        0.1552
      5 N         138.8540  137.9437  161.4786 N.pl3   1  UNL1       -0.3560
      6 C         139.0760  138.6314  162.7931 C.ar    1  UNL1        0.0552
      7 C         138.7231  137.9340  164.0734 C.ar    1  UNL1        0.0153
      8 C         138.9451  138.6217  165.3879 C.ar    1  UNL1        0.0013
      9 C         139.5199  140.0067  165.4220 C.ar    1  UNL1        0.0013
     10 C         139.8728  140.7041  164.1418 C.ar    1  UNL1        0.0159
     11 C         139.6508  140.0164  162.8273 C.ar    1  UNL1        0.0636
     12 H         138.4768  137.0346  161.4562 H       1  UNL1        0.1424
     13 H         139.0856  138.4014  160.6383 H       1  UNL1        0.1424
     14 C         139.7419  140.6945  166.7365 C.ar    1  UNL1        0.0002
     15 C         139.3704  140.0051  168.0159 C.ar    1  UNL1        0.0023
     16 C         139.5924  140.6929  169.3303 C.ar    1  UNL1        0.0296
     17 C         140.1859  142.0700  169.3653 C.ar    1  UNL1        0.1401
     18 F         140.4079  142.7578  170.6797 F       1  UNL1       -0.2042
     19 C         140.5574  142.7594  168.0860 C.ar    1  UNL1        0.0296
     20 C         140.3354  142.0716  166.7716 C.ar    1  UNL1        0.0023
     21 C         139.3926  142.3819  159.6511 C.ar    1  UNL1        0.0537
     22 C         140.6738  143.1550  159.5464 C.ar    1  UNL1        0.0042
     23 C         141.0265  143.8524  158.2661 C.ar    1  UNL1       -0.0028
     24 C         140.0980  143.7767  157.0905 C.ar    1  UNL1       -0.0061
     25 C         138.8168  143.0037  157.1951 C.ar    1  UNL1       -0.0028
     26 C         138.4641  142.3063  158.4754 C.ar    1  UNL1        0.0042
     27 C         140.4507  144.4742  155.8102 C.3     1  UNL1        0.0991
     28 N         140.0570  145.9068  155.6034 N.3     1  UNL1       -0.2690
     29 C         139.2350  146.6157  156.6387 C.3     1  UNL1        0.0724
     30 C         138.8413  148.0483  156.4318 C.3     1  UNL1        0.0188
     31 C         139.2697  148.7719  155.1897 C.3     1  UNL1        0.0185
     32 C         139.6224  149.6209  154.0044 C.3     1  UNL1        0.0185
     33 C         139.0249  150.9807  154.2141 C.3     1  UNL1        0.0686
     34 N         138.3030  150.9721  155.5289 N.3     1  UNL1       -0.2975
     35 C         138.4543  149.6070  156.1319 C.3     1  UNL1        0.0686
     36 C         140.0917  148.0630  154.1545 C.3     1  UNL1        0.0188
     37 C         140.4854  146.6305  154.3614 C.3     1  UNL1        0.0724
     38 H         137.3148  151.1783  155.3826 H       1  UNL1        0.1232
@<TRIPOS>BOND
     1     5     6    1
     2     6     7   ar
     3     7     8   ar
     4     8     9   ar
     5     9    14    1
     6    14    15   ar
     7    15    16   ar
     8    16    17   ar
     9    17    18    1
    10    17    19   ar
    11    19    20   ar
    12     9    10   ar
    13    10    11   ar
    14    11     1    1
    15     1     2   am
    16     2     3    2
    17     2    21    1
    18    21    22   ar
    19    22    23   ar
    20    23    24   ar
    21    24    27    1
    22    27    28    1
    23    28    29    1
    24    29    30    1
    25    30    31    1
    26    31    32    1
    27    32    33    1
    28    33    34    1
    29    34    35    1
    30    31    36    1
    31    36    37    1
    32    24    25   ar
    33    25    26   ar
    34    11     6   ar
    35    26    21   ar
    36    20    14   ar
    37    37    28    1
    38    35    31    1
    39     5    12    1
    40     5    13    1
    41     1     4    1
    42    34    38    1
@<TRIPOS>MOLECULE
*****
 38 42 0 0 0
SMALL
GASTEIGER

@<TRIPOS>ATOM
      1 N         142.8754  141.2524  162.0347 N.am    1  UNL1       -0.2794
      2 C         143.5434  139.9795  161.6062 C.2     1  UNL1        0.2495
      3 O         144.4243  139.2351  162.5653 O.2     1  UNL1       -0.2698
      4 H         142.2972  141.7410  161.4052 H       1  UNL1        0.1552
      5 N         145.2007  143.0579  162.6118 N.pl3   1  UNL1       -0.3560
      6 C         144.2510  142.6836  163.7108 C.ar    1  UNL1        0.0552
      7 C         144.4639  143.2120  165.0984 C.ar    1  UNL1        0.0153
      8 C         143.5141  142.8377  166.1974 C.ar    1  UNL1        0.0013
      9 C         142.3515  141.9350  165.9089 C.ar    1  UNL1        0.0013
     10 C         142.1386  141.4065  164.5213 C.ar    1  UNL1        0.0159
     11 C         143.0883  141.7808  163.4223 C.ar    1  UNL1        0.0636
     12 H         145.9638  143.6504  162.8012 H       1  UNL1        0.1424
     13 H         145.0610  142.7110  161.7010 H       1  UNL1        0.1424
     14 C         141.4017  141.5606  167.0079 C.ar    1  UNL1        0.0002
     15 C         141.2458  142.4554  168.2017 C.ar    1  UNL1        0.0023
     16 C         140.2961  142.0810  169.3007 C.ar    1  UNL1        0.0296
     17 C         139.5021  140.8119  169.2058 C.ar    1  UNL1        0.1401
     18 F         138.5524  140.4375  170.3048 F       1  UNL1       -0.2042
     19 C         139.6580  139.9171  168.0120 C.ar    1  UNL1        0.0296
     20 C         140.6078  140.2915  166.9131 C.ar    1  UNL1        0.0023
     21 C         143.3305  139.4510  160.2186 C.ar    1  UNL1        0.0537
     22 C         142.7952  138.0642  160.0181 C.ar    1  UNL1        0.0042
     23 C         142.5823  137.5357  158.6305 C.ar    1  UNL1       -0.0028
     24 C         142.9048  138.3941  157.4434 C.ar    1  UNL1       -0.0061
     25 C         143.4401  139.7809  157.6439 C.ar    1  UNL1       -0.0028
     26 C         143.6529  140.3094  159.0315 C.ar    1  UNL1        0.0042
     27 C         142.6919  137.8656  156.0559 C.3     1  UNL1        0.0991
     28 N         142.6286  136.3858  155.8184 N.3     1  UNL1       -0.2690
     29 C         143.8794  135.5608  155.8876 C.3     1  UNL1        0.0724
     30 C         143.8160  134.0811  155.6501 C.3     1  UNL1        0.0188
     31 C         142.5017  133.4264  155.3435 C.3     1  UNL1        0.0185
     32 C         141.2663  132.6361  155.0285 C.3     1  UNL1        0.0185
     33 C         141.6637  131.1985  154.8697 C.3     1  UNL1        0.0686
     34 N         143.1447  131.1002  155.0866 N.3     1  UNL1       -0.2975
     35 C         143.6626  132.4771  155.3795 C.3     1  UNL1        0.0686
     36 C         141.2509  134.2513  155.2744 C.3     1  UNL1        0.0188
     37 C         141.3143  135.7311  155.5118 C.3     1  UNL1        0.0724
     38 H         143.5937  130.7326  154.2478 H       1  UNL1        0.1232
@<TRIPOS>BOND
     1     5     6    1
     2     6     7   ar
     3     7     8   ar
     4     8     9   ar
     5     9    14    1
     6    14    15   ar
     7    15    16   ar
     8    16    17   ar
     9    17    18    1
    10    17    19   ar
    11    19    20   ar
    12     9    10   ar
    13    10    11   ar
    14    11     1    1
    15     1     2   am
    16     2     3    2
    17     2    21    1
    18    21    22   ar
    19    22    23   ar
    20    23    24   ar
    21    24    27    1
    22    27    28    1
    23    28    29    1
    24    29    30    1
    25    30    31    1
    26    31    32    1
    27    32    33    1
    28    33    34    1
    29    34    35    1
    30    31    36    1
    31    36    37    1
    32    24    25   ar
    33    25    26   ar
    34    11     6   ar
    35    26    21   ar
    36    20    14   ar
    37    37    28    1
    38    35    31    1
    39     5    12    1
    40     5    13    1
    41     1     4    1
    42    34    38    1
@<TRIPOS>MOLECULE
*****
 38 42 0 0 0
SMALL
GASTEIGER

@<TRIPOS>ATOM
      1 N         141.5187  138.6553  159.4644 N.am    1  UNL1       -0.2794
      2 C         142.1547  138.3851  160.7958 C.2     1  UNL1        0.2495
      3 O         143.5436  137.8225  160.8632 O.2     1  UNL1       -0.2698
      4 H         140.6071  139.0245  159.4202 H       1  UNL1        0.1552
      5 N         142.9720  140.8596  158.0400 N.pl3   1  UNL1       -0.3560
      6 C         142.9982  139.4651  157.4883 C.ar    1  UNL1        0.0552
      7 C         143.7511  139.1727  156.2243 C.ar    1  UNL1        0.0153
      8 C         143.7774  137.7780  155.6726 C.ar    1  UNL1        0.0013
      9 C         143.0508  136.6759  156.3848 C.ar    1  UNL1        0.0013
     10 C         142.2979  136.9683  157.6487 C.ar    1  UNL1        0.0159
     11 C         142.2716  138.3629  158.2005 C.ar    1  UNL1        0.0636
     12 H         143.4489  141.5830  157.5726 H       1  UNL1        0.1424
     13 H         142.4778  141.0516  158.8696 H       1  UNL1        0.1424
     14 C         143.0770  135.2812  155.8330 C.ar    1  UNL1        0.0002
     15 C         142.4604  134.9916  154.4967 C.ar    1  UNL1        0.0023
     16 C         142.4867  133.5969  153.9450 C.ar    1  UNL1        0.0296
     17 C         143.1295  132.4920  154.7297 C.ar    1  UNL1        0.1401
     18 F         143.1558  131.0974  154.1781 F       1  UNL1       -0.2042
     19 C         143.7461  132.7817  156.0661 C.ar    1  UNL1        0.0296
     20 C         143.7199  134.1763  156.6178 C.ar    1  UNL1        0.0023
     21 C         141.4018  138.6775  162.0599 C.ar    1  UNL1        0.0537
     22 C         140.7166  140.0001  162.2360 C.ar    1  UNL1        0.0042
     23 C         139.9638  140.2924  163.5000 C.ar    1  UNL1       -0.0028
     24 C         139.8963  139.2620  164.5880 C.ar    1  UNL1       -0.0061
     25 C         140.5815  137.9393  164.4120 C.ar    1  UNL1       -0.0028
     26 C         141.3343  137.6471  163.1479 C.ar    1  UNL1        0.0042
     27 C         139.1435  139.5543  165.8520 C.3     1  UNL1        0.0991
     28 N         139.8432  140.2054  167.0082 N.3     1  UNL1       -0.2690
     29 C         139.4240  139.8891  168.4132 C.3     1  UNL1        0.0724
     30 C         140.1237  140.5402  169.5693 C.3     1  UNL1        0.0188
     31 C         141.2426  141.5076  169.3203 C.3     1  UNL1        0.0185
     32 C         142.3724  142.4900  169.2272 C.3     1  UNL1        0.0185
     33 C         142.7634  142.8801  170.6218 C.3     1  UNL1        0.0686
     34 N         141.8753  142.1389  171.5768 N.3     1  UNL1       -0.2975
     35 C         140.9354  141.2907  170.7724 C.3     1  UNL1        0.0686
     36 C         141.6618  141.8240  167.9153 C.3     1  UNL1        0.0188
     37 C         140.9621  141.1729  166.7592 C.3     1  UNL1        0.0724
     38 H         141.3453  142.8020  172.1423 H       1  UNL1        0.1232
@<TRIPOS>BOND
     1     5     6    1
     2     6     7   ar
     3     7     8   ar
     4     8     9   ar
     5     9    14    1
     6    14    15   ar
     7    15    16   ar
     8    16    17   ar
     9    17    18    1
    10    17    19   ar
    11    19    20   ar
    12     9    10   ar
    13    10    11   ar
    14    11     1    1
    15     1     2   am
    16     2     3    2
    17     2    21    1
    18    21    22   ar
    19    22    23   ar
    20    23    24   ar
    21    24    27    1
    22    27    28    1
    23    28    29    1
    24    29    30    1
    25    30    31    1
    26    31    32    1
    27    32    33    1
    28    33    34    1
    29    34    35    1
    30    31    36    1
    31    36    37    1
    32    24    25   ar
    33    25    26   ar
    34    11     6   ar
    35    26    21   ar
    36    20    14   ar
    37    37    28    1
    38    35    31    1
    39     5    12    1
    40     5    13    1
    41     1     4    1
    42    34    38    1
@<TRIPOS>MOLECULE
*****
 38 42 0 0 0
SMALL
GASTEIGER

@<TRIPOS>ATOM
      1 N         141.1142  144.0020  158.5843 N.am    1  UNL1       -0.2794
      2 C         140.5614  143.7134  159.9485 C.2     1  UNL1        0.2495
      3 O         139.1053  143.9376  160.2306 O.2     1  UNL1       -0.2698
      4 H         142.0699  143.8549  158.3992 H       1  UNL1        0.1552
      5 N         139.5500  142.0758  156.8982 N.pl3   1  UNL1       -0.3560
      6 C         139.4288  143.5516  156.6591 C.ar    1  UNL1        0.0552
      7 C         138.5255  144.0644  155.5769 C.ar    1  UNL1        0.0153
      8 C         138.4044  145.5403  155.3378 C.ar    1  UNL1        0.0013
      9 C         139.1865  146.5033  156.1808 C.ar    1  UNL1        0.0013
     10 C         140.0898  145.9906  157.2630 C.ar    1  UNL1        0.0159
     11 C         140.2109  144.5147  157.5021 C.ar    1  UNL1        0.0636
     12 H         139.0366  141.4437  156.3449 H       1  UNL1        0.1424
     13 H         140.1428  141.7392  157.6085 H       1  UNL1        0.1424
     14 C         139.0653  147.9792  155.9417 C.ar    1  UNL1        0.0002
     15 C         138.4804  148.8652  157.0014 C.ar    1  UNL1        0.0023
     16 C         138.3593  150.3411  156.7622 C.ar    1  UNL1        0.0296
     17 C         138.8231  150.9309  155.4634 C.ar    1  UNL1        0.1401
     18 F         138.7020  152.4067  155.2242 F       1  UNL1       -0.2042
     19 C         139.4080  150.0449  154.4037 C.ar    1  UNL1        0.0296
     20 C         139.5291  148.5691  154.6429 C.ar    1  UNL1        0.0023
     21 C         141.4647  143.2006  161.0308 C.ar    1  UNL1        0.0537
     22 C         141.4399  141.7477  161.4028 C.ar    1  UNL1        0.0042
     23 C         142.3431  141.2351  162.4850 C.ar    1  UNL1       -0.0028
     24 C         143.2712  142.1754  163.1954 C.ar    1  UNL1       -0.0061
     25 C         143.2960  143.6283  162.8234 C.ar    1  UNL1       -0.0028
     26 C         142.3927  144.1410  161.7412 C.ar    1  UNL1        0.0042
     27 C         144.1744  141.6627  164.2776 C.3     1  UNL1        0.0991
     28 N         143.6209  141.3714  165.6410 N.3     1  UNL1       -0.2690
     29 C         143.2569  139.9660  166.0182 C.3     1  UNL1        0.0724
     30 C         142.7034  139.6747  167.3816 C.3     1  UNL1        0.0188
     31 C         142.5140  140.7889  168.3679 C.3     1  UNL1        0.0185
     32 C         142.2702  141.7947  169.4537 C.3     1  UNL1        0.0185
     33 C         141.7127  141.0681  170.6417 C.3     1  UNL1        0.0686
     34 N         141.6119  139.6134  170.2901 N.3     1  UNL1       -0.2975
     35 C         142.1072  139.4409  168.8847 C.3     1  UNL1        0.0686
     36 C         142.8780  142.1944  167.9907 C.3     1  UNL1        0.0188
     37 C         143.4314  142.4856  166.6272 C.3     1  UNL1        0.0724
     38 H         140.6408  139.3081  170.3548 H       1  UNL1        0.1232
@<TRIPOS>BOND
     1     5     6    1
     2     6     7   ar
     3     7     8   ar
     4     8     9   ar
     5     9    14    1
     6    14    15   ar
     7    15    16   ar
     8    16    17   ar
     9    17    18    1
    10    17    19   ar
    11    19    20   ar
    12     9    10   ar
    13    10    11   ar
    14    11     1    1
    15     1     2   am
    16     2     3    2
    17     2    21    1
    18    21    22   ar
    19    22    23   ar
    20    23    24   ar
    21    24    27    1
    22    27    28    1
    23    28    29    1
    24    29    30    1
    25    30    31    1
    26    31    32    1
    27    32    33    1
    28    33    34    1
    29    34    35    1
    30    31    36    1
    31    36    37    1
    32    24    25   ar
    33    25    26   ar
    34    11     6   ar
    35    26    21   ar
    36    20    14   ar
    37    37    28    1
    38    35    31    1
    39     5    12    1
    40     5    13    1
    41     1     4    1
    42    34    38    1
