@<TRIPOS>MOLECULE
*****
 26 29 0 0 0
SMALL
GASTEIGER

@<TRIPOS>ATOM
      1 N         141.1261  141.1317  166.1864 N.pl3   1  UNL1       -0.2859
      2 C         140.8242  141.5204  167.6034 C.ar    1  UNL1        0.0576
      3 C         141.5669  142.6551  168.2443 C.ar    1  UNL1        0.0153
      4 C         141.2650  143.0437  169.6612 C.ar    1  UNL1        0.0013
      5 C         140.2205  142.2975  170.4373 C.ar    1  UNL1        0.0006
      6 C         139.4779  141.1628  169.7964 C.ar    1  UNL1        0.0077
      7 C         139.7798  140.7742  168.3795 C.ar    1  UNL1        0.0431
      8 S         139.0371  139.6394  167.7385 S.3     1  UNL1       -0.0844
      9 C         139.3389  139.2508  166.3216 C.ar    1  UNL1        0.0434
     10 C         138.5963  138.1160  165.6806 C.ar    1  UNL1        0.0122
     11 C         138.8981  137.7274  164.2636 C.ar    1  UNL1        0.0525
     12 C         139.9426  138.4735  163.4876 C.ar    1  UNL1        0.1820
     13 C         140.6853  139.6083  164.1284 C.ar    1  UNL1        0.0672
     14 C         140.3834  139.9969  165.5455 C.ar    1  UNL1        0.0620
     15 S         140.2445  138.0849  162.0706 S.O     1  UNL1        0.0582
     16 C         139.2441  138.3617  160.9876 C.3     1  UNL1        0.3254
     17 O         141.5466  137.4195  161.7365 O.co2   1  UNL1       -0.6774
     18 C         142.1705  141.8779  165.4103 C.3     1  UNL1        0.0970
     19 C         141.8508  143.2193  164.8201 C.3     1  UNL1        0.0377
     20 C         141.1274  142.6271  161.9695 C.3     1  UNL1        0.0896
     21 N         140.1041  143.2127  162.8969 N.3     1  UNL1       -0.2727
     22 C         138.7191  143.5022  162.3989 C.3     1  UNL1        0.0721
     23 C         137.6958  144.0877  163.3263 C.3     1  UNL1        0.0174
     24 C         138.0575  144.3838  164.7516 C.3     1  UNL1        0.0028
     25 C         139.4425  144.0944  165.2496 C.3     1  UNL1        0.0161
     26 C         140.4658  143.5088  164.3222 C.3     1  UNL1        0.0593
@<TRIPOS>UNITY_ATOM_ATTR
15 1
charge 1
17 1
charge -1
@<TRIPOS>BOND
     1    20    21    1
     2    21    22    1
     3    22    23    1
     4    23    24    1
     5    24    25    1
     6    25    26    1
     7    26    19    1
     8    19    18    1
     9    18     1    1
    10     1     2    1
    11     2     3   ar
    12     3     4   ar
    13     4     5   ar
    14     5     6   ar
    15     6     7   ar
    16     7     8    1
    17     8     9    1
    18     9    10   ar
    19    10    11   ar
    20    11    12   ar
    21    12    15    1
    22    15    16    1
    23    15    17    2
    24    12    13   ar
    25    13    14   ar
    26    26    21    1
    27    14     1    1
    28     7     2   ar
    29    14     9   ar
@<TRIPOS>MOLECULE
*****
 26 29 0 0 0
SMALL
GASTEIGER

@<TRIPOS>ATOM
      1 N         141.1844  140.8587  165.3762 N.pl3   1  UNL1       -0.2859
      2 C         140.5544  139.8204  164.4957 C.ar    1  UNL1        0.0576
      3 C         140.9998  139.6750  163.0708 C.ar    1  UNL1        0.0153
      4 C         140.3699  138.6368  162.1904 C.ar    1  UNL1        0.0013
      5 C         139.2945  137.7440  162.7349 C.ar    1  UNL1        0.0006
      6 C         138.8490  137.8894  164.1598 C.ar    1  UNL1        0.0077
      7 C         139.4790  138.9277  165.0402 C.ar    1  UNL1        0.0431
      8 S         139.0336  139.0732  166.4652 S.3     1  UNL1       -0.0844
      9 C         139.6636  140.1114  167.3456 C.ar    1  UNL1        0.0434
     10 C         139.2181  140.2569  168.7706 C.ar    1  UNL1        0.0122
     11 C         139.8481  141.2951  169.6510 C.ar    1  UNL1        0.0525
     12 C         140.9235  142.1879  169.1065 C.ar    1  UNL1        0.1820
     13 C         141.3689  142.0425  167.6816 C.ar    1  UNL1        0.0672
     14 C         140.7390  141.0042  166.8011 C.ar    1  UNL1        0.0620
     15 S         141.5535  143.2262  169.9869 S.O     1  UNL1        0.0582
     16 C         142.9437  143.0211  170.5118 C.3     1  UNL1        0.3254
     17 O         140.7934  144.4695  170.3424 O.co2   1  UNL1       -0.6774
     18 C         142.2598  141.7515  164.8317 C.3     1  UNL1        0.0970
     19 C         141.9303  143.1542  164.4147 C.3     1  UNL1        0.0377
     20 C         141.0840  142.9219  161.5459 C.3     1  UNL1        0.0896
     21 N         140.1053  143.3921  162.5809 N.3     1  UNL1       -0.2727
     22 C         138.7035  143.7461  162.1815 C.3     1  UNL1        0.0721
     23 C         137.7248  144.2163  163.2164 C.3     1  UNL1        0.0174
     24 C         138.1480  144.3324  164.6509 C.3     1  UNL1        0.0028
     25 C         139.5498  143.9784  165.0503 C.3     1  UNL1        0.0161
     26 C         140.5285  143.5082  164.0153 C.3     1  UNL1        0.0593
@<TRIPOS>UNITY_ATOM_ATTR
15 1
charge 1
17 1
charge -1
@<TRIPOS>BOND
     1    20    21    1
     2    21    22    1
     3    22    23    1
     4    23    24    1
     5    24    25    1
     6    25    26    1
     7    26    19    1
     8    19    18    1
     9    18     1    1
    10     1     2    1
    11     2     3   ar
    12     3     4   ar
    13     4     5   ar
    14     5     6   ar
    15     6     7   ar
    16     7     8    1
    17     8     9    1
    18     9    10   ar
    19    10    11   ar
    20    11    12   ar
    21    12    15    1
    22    15    16    1
    23    15    17    2
    24    12    13   ar
    25    13    14   ar
    26    26    21    1
    27    14     1    1
    28     7     2   ar
    29    14     9   ar
@<TRIPOS>MOLECULE
*****
 26 29 0 0 0
SMALL
GASTEIGER

@<TRIPOS>ATOM
      1 N         139.7479  139.3954  164.8600 N.pl3   1  UNL1       -0.2859
      2 C         140.4896  138.8998  163.6540 C.ar    1  UNL1        0.0576
      3 C         139.7744  138.7460  162.3445 C.ar    1  UNL1        0.0153
      4 C         140.5160  138.2504  161.1386 C.ar    1  UNL1        0.0013
      5 C         141.9729  137.9085  161.2422 C.ar    1  UNL1        0.0006
      6 C         142.6881  138.0623  162.5517 C.ar    1  UNL1        0.0077
      7 C         141.9464  138.5579  163.7576 C.ar    1  UNL1        0.0431
      8 S         142.6616  138.7116  165.0672 S.3     1  UNL1       -0.0844
      9 C         141.9200  139.2072  166.2731 C.ar    1  UNL1        0.0434
     10 C         142.6352  139.3610  167.5827 C.ar    1  UNL1        0.0122
     11 C         141.8935  139.8566  168.7886 C.ar    1  UNL1        0.0525
     12 C         140.4367  140.1985  168.6850 C.ar    1  UNL1        0.1820
     13 C         139.7215  140.0448  167.3755 C.ar    1  UNL1        0.0672
     14 C         140.4631  139.5491  166.1695 C.ar    1  UNL1        0.0620
     15 S         139.6951  140.6941  169.8909 S.O     1  UNL1        0.0582
     16 C         139.7835  142.1389  170.2845 C.3     1  UNL1        0.3254
     17 O         138.8649  139.7450  170.7034 O.co2   1  UNL1       -0.6774
     18 C         138.2911  139.7373  164.7564 C.3     1  UNL1        0.0970
     19 C         137.8302  140.7631  163.7639 C.3     1  UNL1        0.0377
     20 C         138.2541  142.3193  161.2343 C.3     1  UNL1        0.0896
     21 N         138.5817  142.9395  162.5603 N.3     1  UNL1       -0.2727
     22 C         139.1213  144.3377  162.6214 C.3     1  UNL1        0.0721
     23 C         139.4490  144.9579  163.9473 C.3     1  UNL1        0.0174
     24 C         139.2370  144.1798  165.2121 C.3     1  UNL1        0.0028
     25 C         138.6974  142.7816  165.1510 C.3     1  UNL1        0.0161
     26 C         138.3698  142.1614  163.8250 C.3     1  UNL1        0.0593
@<TRIPOS>UNITY_ATOM_ATTR
15 1
charge 1
17 1
charge -1
@<TRIPOS>BOND
     1    20    21    1
     2    21    22    1
     3    22    23    1
     4    23    24    1
     5    24    25    1
     6    25    26    1
     7    26    19    1
     8    19    18    1
     9    18     1    1
    10     1     2    1
    11     2     3   ar
    12     3     4   ar
    13     4     5   ar
    14     5     6   ar
    15     6     7   ar
    16     7     8    1
    17     8     9    1
    18     9    10   ar
    19    10    11   ar
    20    11    12   ar
    21    12    15    1
    22    15    16    1
    23    15    17    2
    24    12    13   ar
    25    13    14   ar
    26    26    21    1
    27    14     1    1
    28     7     2   ar
    29    14     9   ar
@<TRIPOS>MOLECULE
*****
 26 29 0 0 0
SMALL
GASTEIGER

@<TRIPOS>ATOM
      1 N         142.1144  139.8064  165.3582 N.pl3   1  UNL1       -0.2859
      2 C         142.3187  139.2617  163.9755 C.ar    1  UNL1        0.0576
      3 C         143.6207  139.4869  163.2655 C.ar    1  UNL1        0.0153
      4 C         143.8249  138.9422  161.8830 C.ar    1  UNL1        0.0013
      5 C         142.7272  138.1723  161.2104 C.ar    1  UNL1        0.0006
      6 C         141.4253  137.9472  161.9204 C.ar    1  UNL1        0.0077
      7 C         141.2210  138.4919  163.3029 C.ar    1  UNL1        0.0431
      8 S         139.9190  138.2667  164.0130 S.3     1  UNL1       -0.0844
      9 C         139.7147  138.8114  165.3956 C.ar    1  UNL1        0.0434
     10 C         138.4127  138.5863  166.1056 C.ar    1  UNL1        0.0122
     11 C         138.2084  139.1310  167.4882 C.ar    1  UNL1        0.0525
     12 C         139.3061  139.9008  168.1608 C.ar    1  UNL1        0.1820
     13 C         140.6081  140.1260  167.4508 C.ar    1  UNL1        0.0672
     14 C         140.8124  139.5813  166.0681 C.ar    1  UNL1        0.0620
     15 S         139.1019  140.4455  169.5433 S.O     1  UNL1        0.0582
     16 C         139.8315  141.6821  169.9777 C.3     1  UNL1        0.3254
     17 O         138.1680  139.7537  170.4916 O.co2   1  UNL1       -0.6774
     18 C         143.2121  140.5763  166.0307 C.3     1  UNL1        0.0970
     19 C         143.0906  142.0615  166.2017 C.3     1  UNL1        0.0377
     20 C         140.4458  143.3216  165.5558 C.3     1  UNL1        0.0896
     21 N         141.6331  143.5764  164.6751 N.3     1  UNL1       -0.2727
     22 C         141.4979  144.4613  163.4715 C.3     1  UNL1        0.0721
     23 C         142.6850  144.7162  162.5908 C.3     1  UNL1        0.0174
     24 C         144.0075  144.0862  162.9138 C.3     1  UNL1        0.0028
     25 C         144.1427  143.2013  164.1174 C.3     1  UNL1        0.0161
     26 C         142.9554  142.9464  164.9980 C.3     1  UNL1        0.0593
@<TRIPOS>UNITY_ATOM_ATTR
15 1
charge 1
17 1
charge -1
@<TRIPOS>BOND
     1    20    21    1
     2    21    22    1
     3    22    23    1
     4    23    24    1
     5    24    25    1
     6    25    26    1
     7    26    19    1
     8    19    18    1
     9    18     1    1
    10     1     2    1
    11     2     3   ar
    12     3     4   ar
    13     4     5   ar
    14     5     6   ar
    15     6     7   ar
    16     7     8    1
    17     8     9    1
    18     9    10   ar
    19    10    11   ar
    20    11    12   ar
    21    12    15    1
    22    15    16    1
    23    15    17    2
    24    12    13   ar
    25    13    14   ar
    26    26    21    1
    27    14     1    1
    28     7     2   ar
    29    14     9   ar
@<TRIPOS>MOLECULE
*****
 26 29 0 0 0
SMALL
GASTEIGER

@<TRIPOS>ATOM
      1 N         140.7363  142.9224  165.5960 N.pl3   1  UNL1       -0.2859
      2 C         141.6460  143.4032  164.5045 C.ar    1  UNL1        0.0576
      3 C         141.0682  143.9373  163.2275 C.ar    1  UNL1        0.0153
      4 C         141.9779  144.4181  162.1360 C.ar    1  UNL1        0.0013
      5 C         143.4654  144.3647  162.3216 C.ar    1  UNL1        0.0006
      6 C         144.0432  143.8306  163.5986 C.ar    1  UNL1        0.0077
      7 C         143.1335  143.3498  164.6900 C.ar    1  UNL1        0.0431
      8 S         143.7113  142.8157  165.9671 S.3     1  UNL1       -0.0844
      9 C         142.8016  142.3349  167.0586 C.ar    1  UNL1        0.0434
     10 C         143.3794  141.8008  168.3357 C.ar    1  UNL1        0.0122
     11 C         142.4698  141.3200  169.4271 C.ar    1  UNL1        0.0525
     12 C         140.9822  141.3734  169.2415 C.ar    1  UNL1        0.1820
     13 C         140.4044  141.9075  167.9645 C.ar    1  UNL1        0.0672
     14 C         141.3141  142.3883  166.8730 C.ar    1  UNL1        0.0620
     15 S         140.0725  140.8926  170.3330 S.O     1  UNL1        0.0582
     16 C         138.7643  140.2447  169.9880 C.3     1  UNL1        0.3254
     17 O         140.4710  141.0597  171.7694 O.co2   1  UNL1       -0.6774
     18 C         139.2488  142.9757  165.4104 C.3     1  UNL1        0.0970
     19 C         138.5727  142.0050  164.4881 C.3     1  UNL1        0.0377
     20 C         140.1518  140.3971  162.5080 C.3     1  UNL1        0.0896
     21 N         139.5395  139.7255  163.7014 N.3     1  UNL1       -0.2727
     22 C         139.7167  138.2499  163.9047 C.3     1  UNL1        0.0721
     23 C         139.1044  137.5784  165.0980 C.3     1  UNL1        0.0174
     24 C         138.3148  138.3824  166.0881 C.3     1  UNL1        0.0028
     25 C         138.1376  139.8579  165.8848 C.3     1  UNL1        0.0161
     26 C         138.7499  140.5295  164.6914 C.3     1  UNL1        0.0593
@<TRIPOS>UNITY_ATOM_ATTR
15 1
charge 1
17 1
charge -1
@<TRIPOS>BOND
     1    20    21    1
     2    21    22    1
     3    22    23    1
     4    23    24    1
     5    24    25    1
     6    25    26    1
     7    26    19    1
     8    19    18    1
     9    18     1    1
    10     1     2    1
    11     2     3   ar
    12     3     4   ar
    13     4     5   ar
    14     5     6   ar
    15     6     7   ar
    16     7     8    1
    17     8     9    1
    18     9    10   ar
    19    10    11   ar
    20    11    12   ar
    21    12    15    1
    22    15    16    1
    23    15    17    2
    24    12    13   ar
    25    13    14   ar
    26    26    21    1
    27    14     1    1
    28     7     2   ar
    29    14     9   ar
@<TRIPOS>MOLECULE
*****
 26 29 0 0 0
SMALL
GASTEIGER

@<TRIPOS>ATOM
      1 N         139.2961  139.7451  164.9473 N.pl3   1  UNL1       -0.2859
      2 C         138.9088  140.4148  163.6622 C.ar    1  UNL1        0.0576
      3 C         138.4539  139.5906  162.4944 C.ar    1  UNL1        0.0153
      4 C         138.0665  140.2603  161.2094 C.ar    1  UNL1        0.0013
      5 C         138.1341  141.7542  161.0921 C.ar    1  UNL1        0.0006
      6 C         138.5890  142.5783  162.2598 C.ar    1  UNL1        0.0077
      7 C         138.9763  141.9086  163.5449 C.ar    1  UNL1        0.0431
      8 S         139.4312  142.7328  164.7128 S.3     1  UNL1       -0.0844
      9 C         139.8186  142.0631  165.9978 C.ar    1  UNL1        0.0434
     10 C         140.2735  142.8873  167.1657 C.ar    1  UNL1        0.0122
     11 C         140.6608  142.2176  168.4508 C.ar    1  UNL1        0.0525
     12 C         140.5933  140.7237  168.5680 C.ar    1  UNL1        0.1820
     13 C         140.1384  139.8995  167.4003 C.ar    1  UNL1        0.0672
     14 C         139.7510  140.5692  166.1151 C.ar    1  UNL1        0.0620
     15 S         140.9806  140.0540  169.8531 S.O     1  UNL1        0.0582
     16 C         142.4290  139.9014  170.2125 C.3     1  UNL1        0.3254
     17 O         139.9197  139.5370  170.7789 O.co2   1  UNL1       -0.6774
     18 C         139.2285  138.2512  165.0646 C.3     1  UNL1        0.0970
     19 C         140.3516  137.4062  164.5405 C.3     1  UNL1        0.0377
     20 C         141.4363  137.8847  161.7847 C.3     1  UNL1        0.0896
     21 N         142.2603  138.2389  162.9871 N.3     1  UNL1       -0.2727
     22 C         143.6267  138.8324  162.8116 C.3     1  UNL1        0.0721
     23 C         144.4507  139.1865  164.0139 C.3     1  UNL1        0.0174
     24 C         143.9083  138.9473  165.3918 C.3     1  UNL1        0.0028
     25 C         142.5419  138.3538  165.5674 C.3     1  UNL1        0.0161
     26 C         141.7179  137.9996  164.3650 C.3     1  UNL1        0.0593
@<TRIPOS>UNITY_ATOM_ATTR
15 1
charge 1
17 1
charge -1
@<TRIPOS>BOND
     1    20    21    1
     2    21    22    1
     3    22    23    1
     4    23    24    1
     5    24    25    1
     6    25    26    1
     7    26    19    1
     8    19    18    1
     9    18     1    1
    10     1     2    1
    11     2     3   ar
    12     3     4   ar
    13     4     5   ar
    14     5     6   ar
    15     6     7   ar
    16     7     8    1
    17     8     9    1
    18     9    10   ar
    19    10    11   ar
    20    11    12   ar
    21    12    15    1
    22    15    16    1
    23    15    17    2
    24    12    13   ar
    25    13    14   ar
    26    26    21    1
    27    14     1    1
    28     7     2   ar
    29    14     9   ar
@<TRIPOS>MOLECULE
*****
 26 29 0 0 0
SMALL
GASTEIGER

@<TRIPOS>ATOM
      1 N         140.0815  141.9967  164.8236 N.pl3   1  UNL1       -0.2859
      2 C         139.5786  141.0199  163.8023 C.ar    1  UNL1        0.0576
      3 C         139.6402  141.3620  162.3431 C.ar    1  UNL1        0.0153
      4 C         139.1372  140.3852  161.3220 C.ar    1  UNL1        0.0013
      5 C         138.5727  139.0663  161.7599 C.ar    1  UNL1        0.0006
      6 C         138.5111  138.7242  163.2190 C.ar    1  UNL1        0.0077
      7 C         139.0141  139.7010  164.2402 C.ar    1  UNL1        0.0431
      8 S         138.9525  139.3589  165.6995 S.3     1  UNL1       -0.0844
      9 C         139.4554  140.3357  166.7206 C.ar    1  UNL1        0.0434
     10 C         139.3938  139.9936  168.1799 C.ar    1  UNL1        0.0122
     11 C         139.8968  140.9704  169.2011 C.ar    1  UNL1        0.0525
     12 C         140.4613  142.2893  168.7631 C.ar    1  UNL1        0.1820
     13 C         140.5229  142.6314  167.3040 C.ar    1  UNL1        0.0672
     14 C         140.0199  141.6546  166.2827 C.ar    1  UNL1        0.0620
     15 S         140.9642  143.2661  169.7843 S.O     1  UNL1        0.0582
     16 C         142.3605  143.1409  170.3180 C.3     1  UNL1        0.3254
     17 O         140.0710  144.3681  170.2718 O.co2   1  UNL1       -0.6774
     18 C         140.6461  143.3156  164.3856 C.3     1  UNL1        0.0970
     19 C         142.1317  143.5042  164.2999 C.3     1  UNL1        0.0377
     20 C         142.8889  143.0864  161.4272 C.3     1  UNL1        0.0896
     21 N         143.3917  142.1437  162.4802 N.3     1  UNL1       -0.2727
     22 C         144.2731  140.9921  162.0968 C.3     1  UNL1        0.0721
     23 C         144.7758  140.0495  163.1496 C.3     1  UNL1        0.0174
     24 C         144.3972  140.2583  164.5860 C.3     1  UNL1        0.0028
     25 C         143.5158  141.4099  164.9694 C.3     1  UNL1        0.0161
     26 C         143.0131  142.3526  163.9165 C.3     1  UNL1        0.0593
@<TRIPOS>UNITY_ATOM_ATTR
15 1
charge 1
17 1
charge -1
@<TRIPOS>BOND
     1    20    21    1
     2    21    22    1
     3    22    23    1
     4    23    24    1
     5    24    25    1
     6    25    26    1
     7    26    19    1
     8    19    18    1
     9    18     1    1
    10     1     2    1
    11     2     3   ar
    12     3     4   ar
    13     4     5   ar
    14     5     6   ar
    15     6     7   ar
    16     7     8    1
    17     8     9    1
    18     9    10   ar
    19    10    11   ar
    20    11    12   ar
    21    12    15    1
    22    15    16    1
    23    15    17    2
    24    12    13   ar
    25    13    14   ar
    26    26    21    1
    27    14     1    1
    28     7     2   ar
    29    14     9   ar
@<TRIPOS>MOLECULE
*****
 26 29 0 0 0
SMALL
GASTEIGER

@<TRIPOS>ATOM
      1 N         140.7331  139.5943  165.9431 N.pl3   1  UNL1       -0.2859
      2 C         140.6697  140.2919  167.2696 C.ar    1  UNL1        0.0576
      3 C         139.5220  140.0317  168.1997 C.ar    1  UNL1        0.0153
      4 C         139.4586  140.7293  169.5260 C.ar    1  UNL1        0.0013
      5 C         140.5429  141.6870  169.9223 C.ar    1  UNL1        0.0006
      6 C         141.6906  141.9472  168.9923 C.ar    1  UNL1        0.0077
      7 C         141.7540  141.2496  167.6659 C.ar    1  UNL1        0.0431
      8 S         142.9017  141.5098  166.7357 S.3     1  UNL1       -0.0844
      9 C         142.9651  140.8122  165.4093 C.ar    1  UNL1        0.0434
     10 C         144.1128  141.0724  164.4792 C.ar    1  UNL1        0.0122
     11 C         144.1762  140.3748  163.1528 C.ar    1  UNL1        0.0525
     12 C         143.0919  139.4171  162.7565 C.ar    1  UNL1        0.1820
     13 C         141.9443  139.1569  163.6866 C.ar    1  UNL1        0.0672
     14 C         141.8808  139.8545  165.0130 C.ar    1  UNL1        0.0620
     15 S         143.1553  138.7195  161.4301 S.O     1  UNL1        0.0582
     16 C         141.9694  137.9486  160.9307 C.3     1  UNL1        0.3254
     17 O         144.4046  138.7928  160.6031 O.co2   1  UNL1       -0.6774
     18 C         139.6489  138.6365  165.5468 C.3     1  UNL1        0.0970
     19 C         138.2865  139.1522  165.1892 C.3     1  UNL1        0.0377
     20 C         138.1253  138.5720  162.2502 C.3     1  UNL1        0.0896
     21 N         138.0639  139.9887  162.7395 N.3     1  UNL1       -0.2727
     22 C         137.9219  141.1152  161.7593 C.3     1  UNL1        0.0721
     23 C         137.8605  142.5318  162.2486 C.3     1  UNL1        0.0174
     24 C         137.9410  142.8220  163.7181 C.3     1  UNL1        0.0028
     25 C         138.0831  141.6954  164.6983 C.3     1  UNL1        0.0161
     26 C         138.1445  140.2788  164.2090 C.3     1  UNL1        0.0593
@<TRIPOS>UNITY_ATOM_ATTR
15 1
charge 1
17 1
charge -1
@<TRIPOS>BOND
     1    20    21    1
     2    21    22    1
     3    22    23    1
     4    23    24    1
     5    24    25    1
     6    25    26    1
     7    26    19    1
     8    19    18    1
     9    18     1    1
    10     1     2    1
    11     2     3   ar
    12     3     4   ar
    13     4     5   ar
    14     5     6   ar
    15     6     7   ar
    16     7     8    1
    17     8     9    1
    18     9    10   ar
    19    10    11   ar
    20    11    12   ar
    21    12    15    1
    22    15    16    1
    23    15    17    2
    24    12    13   ar
    25    13    14   ar
    26    26    21    1
    27    14     1    1
    28     7     2   ar
    29    14     9   ar
@<TRIPOS>MOLECULE
*****
 26 29 0 0 0
SMALL
GASTEIGER

@<TRIPOS>ATOM
      1 N         141.2517  141.1493  165.0318 N.pl3   1  UNL1       -0.2859
      2 C         142.1818  140.7327  163.9311 C.ar    1  UNL1        0.0576
      3 C         141.9814  141.2583  162.5407 C.ar    1  UNL1        0.0153
      4 C         142.9116  140.8417  161.4401 C.ar    1  UNL1        0.0013
      5 C         144.0421  139.8995  161.7301 C.ar    1  UNL1        0.0006
      6 C         144.2425  139.3738  163.1206 C.ar    1  UNL1        0.0077
      7 C         143.3124  139.7905  164.2211 C.ar    1  UNL1        0.0431
      8 S         143.5127  139.2648  165.6117 S.3     1  UNL1       -0.0844
      9 C         142.5826  139.6815  166.7122 C.ar    1  UNL1        0.0434
     10 C         142.7830  139.1558  168.1028 C.ar    1  UNL1        0.0122
     11 C         141.8529  139.5725  169.2033 C.ar    1  UNL1        0.0525
     12 C         140.7223  140.5147  168.9134 C.ar    1  UNL1        0.1820
     13 C         140.5219  141.0403  167.5229 C.ar    1  UNL1        0.0672
     14 C         141.4521  140.6237  166.4223 C.ar    1  UNL1        0.0620
     15 S         139.7922  140.9313  170.0139 S.O     1  UNL1        0.0582
     16 C         139.7426  142.3653  170.4514 C.3     1  UNL1        0.3254
     17 O         138.9116  139.9140  170.6770 O.co2   1  UNL1       -0.6774
     18 C         140.1211  142.0916  164.7418 C.3     1  UNL1        0.0970
     19 C         138.7452  141.5543  164.4810 C.3     1  UNL1        0.0377
     20 C         137.9833  142.1408  161.6392 C.3     1  UNL1        0.0896
     21 N         138.1705  140.7218  162.0880 N.3     1  UNL1       -0.2727
     22 C         137.9767  139.5960  161.1159 C.3     1  UNL1        0.0721
     23 C         138.1638  138.1770  161.5646 C.3     1  UNL1        0.0174
     24 C         138.5447  137.8837  162.9855 C.3     1  UNL1        0.0028
     25 C         138.7385  139.0095  163.9576 C.3     1  UNL1        0.0161
     26 C         138.5514  140.4286  163.5089 C.3     1  UNL1        0.0593
@<TRIPOS>UNITY_ATOM_ATTR
15 1
charge 1
17 1
charge -1
@<TRIPOS>BOND
     1    20    21    1
     2    21    22    1
     3    22    23    1
     4    23    24    1
     5    24    25    1
     6    25    26    1
     7    26    19    1
     8    19    18    1
     9    18     1    1
    10     1     2    1
    11     2     3   ar
    12     3     4   ar
    13     4     5   ar
    14     5     6   ar
    15     6     7   ar
    16     7     8    1
    17     8     9    1
    18     9    10   ar
    19    10    11   ar
    20    11    12   ar
    21    12    15    1
    22    15    16    1
    23    15    17    2
    24    12    13   ar
    25    13    14   ar
    26    26    21    1
    27    14     1    1
    28     7     2   ar
    29    14     9   ar
