@<TRIPOS>MOLECULE
*****
 38 42 0 0 0
SMALL
GASTEIGER

@<TRIPOS>ATOM
      1 N         140.9132  144.5931  160.6566 N.ar    1  UNL1       -0.2743
      2 C         139.9293  145.2031  161.6104 C.ar    1  UNL1        0.3319
      3 O         139.2004  146.4997  161.4159 O.2     1  UNL1       -0.2463
      4 N         139.8023  144.2890  162.7929 N.ar    1  UNL1       -0.2778
      5 C         138.9241  144.5109  163.9885 C.3     1  UNL1        0.1351
      6 C         140.7077  143.1141  162.5698 C.ar    1  UNL1        0.0827
      7 C         140.9957  141.8973  163.3985 C.ar    1  UNL1        0.0350
      8 C         140.3091  141.7094  164.7188 C.ar    1  UNL1        0.0030
      9 C         140.5971  140.4927  165.5474 C.ar    1  UNL1        0.0017
     10 C         141.5716  139.4639  165.0557 C.ar    1  UNL1        0.0016
     11 C         142.2582  139.6518  163.7354 C.ar    1  UNL1        0.0191
     12 C         141.9702  140.8685  162.9068 C.ar    1  UNL1        0.0828
     13 N         142.6568  141.0565  161.5864 N.ar    1  UNL1       -0.2422
     14 C         142.3689  142.2732  160.7578 C.ar    1  UNL1        0.1175
     15 C         141.3943  143.3020  161.2495 C.ar    1  UNL1        0.0992
     16 C         139.9105  140.3047  166.8678 C.ar    1  UNL1        0.0207
     17 C         138.7877  139.3183  166.9955 C.ar    1  UNL1        0.1021
     18 N         138.1011  139.1303  168.3158 N.ar    1  UNL1       -0.2090
     19 C         138.5373  139.9288  169.5084 C.ar    1  UNL1        0.2400
     20 C         139.6600  140.9152  169.3807 C.ar    1  UNL1        0.1175
     21 C         140.3466  141.1032  168.0603 C.ar    1  UNL1        0.0221
     22 O         137.8507  139.7408  170.8287 O.3     1  UNL1       -0.4553
     23 C         136.6451  138.8537  170.9276 C.3     1  UNL1        0.2543
     24 N         140.0962  141.7137  170.5732 N.pl3   1  UNL1       -0.2142
     25 H         139.5035  141.7942  171.3552 H       1  UNL1        0.1735
     26 S         141.4353  142.3895  170.5743 S.O2    1  UNL1        0.0559
     27 C         142.7744  143.0654  170.5754 C.3     1  UNL1        0.1996
     28 O         142.0937  141.0844  170.9105 O.2     1  UNL1       -0.1544
     29 O         140.7769  143.6947  170.2381 O.2     1  UNL1       -0.1544
     30 C         141.3410  145.1725  159.3407 C.3     1  UNL1        0.1373
     31 C         138.6546  144.8212  155.7478 C.ar    1  UNL1        0.1387
     32 C         138.8397  143.6476  156.6634 C.ar    1  UNL1        0.0366
     33 C         139.7352  143.7647  157.8610 C.ar    1  UNL1        0.0007
     34 C         140.4455  145.0554  158.1430 C.ar    1  UNL1        0.0007
     35 C         140.2604  146.2290  157.2274 C.ar    1  UNL1        0.0007
     36 C         139.3649  146.1119  156.0298 C.ar    1  UNL1        0.0366
     37 C         136.7807  143.5713  154.4530 C.3     1  UNL1        0.2525
     38 O         137.7591  144.7042  154.5501 O.3     1  UNL1       -0.4714
@<TRIPOS>BOND
     1    37    38    1
     2    38    31    1
     3    31    32   ar
     4    32    33   ar
     5    33    34   ar
     6    34    30    1
     7    30     1    1
     8     1     2   ar
     9     2     3    2
    10     2     4   ar
    11     4     5    1
    12     4     6   ar
    13     6     7   ar
    14     7     8   ar
    15     8     9   ar
    16     9    16    1
    17    16    17   ar
    18    17    18   ar
    19    18    19   ar
    20    19    22    1
    21    22    23    1
    22    19    20   ar
    23    20    24    1
    24    24    26    1
    25    26    27    1
    26    26    28    2
    27    26    29    2
    28    20    21   ar
    29     9    10   ar
    30    10    11   ar
    31    11    12   ar
    32    12    13   ar
    33    13    14   ar
    34    14    15   ar
    35    34    35   ar
    36    35    36   ar
    37    36    31   ar
    38    15     1   ar
    39    15     6   ar
    40    12     7   ar
    41    21    16   ar
    42    24    25    1
@<TRIPOS>MOLECULE
*****
 38 42 0 0 0
SMALL
GASTEIGER

@<TRIPOS>ATOM
      1 N         142.7143  142.6399  160.6779 N.ar    1  UNL1       -0.2743
      2 C         142.8579  143.4081  161.9582 C.ar    1  UNL1        0.3319
      3 O         143.6354  144.6776  162.1423 O.2     1  UNL1       -0.2463
      4 N         142.0874  142.6840  163.0222 N.ar    1  UNL1       -0.2778
      5 C         141.9592  143.1022  164.4570 C.3     1  UNL1        0.1351
      6 C         141.4677  141.4683  162.3994 C.ar    1  UNL1        0.0827
      7 C         140.6005  140.3825  162.9645 C.ar    1  UNL1        0.0350
      8 C         140.2132  140.4097  164.4133 C.ar    1  UNL1        0.0030
      9 C         139.3461  139.3240  164.9783 C.ar    1  UNL1        0.0017
     10 C         138.8664  138.2110  164.0945 C.ar    1  UNL1        0.0016
     11 C         139.2538  138.1837  162.6457 C.ar    1  UNL1        0.0191
     12 C         140.1209  139.2695  162.0807 C.ar    1  UNL1        0.0828
     13 N         140.5083  139.2422  160.6318 N.ar    1  UNL1       -0.2422
     14 C         141.3754  140.3280  160.0668 C.ar    1  UNL1        0.1175
     15 C         141.8550  141.4410  160.9506 C.ar    1  UNL1        0.0992
     16 C         138.9586  139.3512  166.4272 C.ar    1  UNL1        0.0207
     17 C         137.7179  138.6435  166.8852 C.ar    1  UNL1        0.1021
     18 N         137.3305  138.6707  168.3340 N.ar    1  UNL1       -0.2090
     19 C         138.1838  139.4056  169.3249 C.ar    1  UNL1        0.2400
     20 C         139.4245  140.1134  168.8670 C.ar    1  UNL1        0.1175
     21 C         139.8119  140.0861  167.4181 C.ar    1  UNL1        0.0221
     22 O         137.7963  139.4328  170.7737 O.3     1  UNL1       -0.4553
     23 C         136.4902  138.8396  171.2121 C.3     1  UNL1        0.2543
     24 N         140.2777  140.8483  169.8578 N.pl3   1  UNL1       -0.2142
     25 H         140.8216  140.3463  170.5070 H       1  UNL1        0.1735
     26 S         140.3024  142.3481  169.8595 S.O2    1  UNL1        0.0559
     27 C         140.3270  143.8479  169.8612 C.3     1  UNL1        0.1996
     28 O         141.5136  142.3292  168.9748 O.2     1  UNL1       -0.1544
     29 O         139.0912  142.3670  170.7442 O.2     1  UNL1       -0.1544
     30 C         143.3230  143.0063  159.3567 C.3     1  UNL1        0.1373
     31 C         141.0442  145.6009  156.4716 C.ar    1  UNL1        0.1387
     32 C         140.8035  145.7290  157.9465 C.ar    1  UNL1        0.0366
     33 C         141.5631  144.8641  158.9083 C.ar    1  UNL1        0.0007
     34 C         142.5634  143.8712  158.3950 C.ar    1  UNL1        0.0007
     35 C         142.8041  143.7430  156.9200 C.ar    1  UNL1        0.0007
     36 C         142.0444  144.6079  155.9583 C.ar    1  UNL1        0.0366
     37 C         140.7675  146.6206  154.0981 C.3     1  UNL1        0.2525
     38 O         140.2846  146.4657  155.5097 O.3     1  UNL1       -0.4714
@<TRIPOS>BOND
     1    37    38    1
     2    38    31    1
     3    31    32   ar
     4    32    33   ar
     5    33    34   ar
     6    34    30    1
     7    30     1    1
     8     1     2   ar
     9     2     3    2
    10     2     4   ar
    11     4     5    1
    12     4     6   ar
    13     6     7   ar
    14     7     8   ar
    15     8     9   ar
    16     9    16    1
    17    16    17   ar
    18    17    18   ar
    19    18    19   ar
    20    19    22    1
    21    22    23    1
    22    19    20   ar
    23    20    24    1
    24    24    26    1
    25    26    27    1
    26    26    28    2
    27    26    29    2
    28    20    21   ar
    29     9    10   ar
    30    10    11   ar
    31    11    12   ar
    32    12    13   ar
    33    13    14   ar
    34    14    15   ar
    35    34    35   ar
    36    35    36   ar
    37    36    31   ar
    38    15     1   ar
    39    15     6   ar
    40    12     7   ar
    41    21    16   ar
    42    24    25    1
@<TRIPOS>MOLECULE
*****
 38 42 0 0 0
SMALL
GASTEIGER

@<TRIPOS>ATOM
      1 N         140.7687  139.6084  159.5336 N.ar    1  UNL1       -0.2743
      2 C         139.3391  139.6384  159.9866 C.ar    1  UNL1        0.3319
      3 O         138.1319  139.6420  159.0961 O.2     1  UNL1       -0.2463
      4 N         139.3285  139.6642  161.4863 N.ar    1  UNL1       -0.2778
      5 C         138.1090  139.6981  162.3590 C.3     1  UNL1        0.1351
      6 C         140.7516  139.6501  161.9601 C.ar    1  UNL1        0.0827
      7 C         141.3519  139.6642  163.3347 C.ar    1  UNL1        0.0350
      8 C         140.4618  139.6987  164.5416 C.ar    1  UNL1        0.0030
      9 C         141.0622  139.7128  165.9161 C.ar    1  UNL1        0.0017
     10 C         142.5527  139.6925  166.0838 C.ar    1  UNL1        0.0016
     11 C         143.4428  139.6580  164.8769 C.ar    1  UNL1        0.0191
     12 C         142.8424  139.6439  163.5024 C.ar    1  UNL1        0.0828
     13 N         143.7325  139.6094  162.2955 N.ar    1  UNL1       -0.2422
     14 C         143.1322  139.5953  160.9210 C.ar    1  UNL1        0.1175
     15 C         141.6417  139.6157  160.7533 C.ar    1  UNL1        0.0992
     16 C         140.1721  139.7473  167.1230 C.ar    1  UNL1        0.0207
     17 C         138.8455  139.0478  167.0967 C.ar    1  UNL1        0.1021
     18 N         137.9554  139.0822  168.3035 N.ar    1  UNL1       -0.2090
     19 C         138.3919  139.8162  169.5368 C.ar    1  UNL1        0.2400
     20 C         139.7185  140.5158  169.5631 C.ar    1  UNL1        0.1175
     21 C         140.6086  140.4813  168.3561 C.ar    1  UNL1        0.0221
     22 O         137.5018  139.8507  170.7436 O.3     1  UNL1       -0.4553
     23 C         136.5149  138.7459  170.9794 C.3     1  UNL1        0.2543
     24 N         140.1551  141.2497  170.7962 N.pl3   1  UNL1       -0.2142
     25 H         139.6249  141.1819  171.6230 H       1  UNL1        0.1735
     26 S         141.3993  142.0871  170.7696 S.O2    1  UNL1        0.0559
     27 C         142.6435  142.9244  170.7431 C.3     1  UNL1        0.1996
     28 O         140.5786  143.2958  170.4296 O.2     1  UNL1       -0.1544
     29 O         142.2200  140.8784  171.1096 O.2     1  UNL1       -0.1544
     30 C         141.2423  139.5768  158.1105 C.3     1  UNL1        0.1373
     31 C         141.8139  135.6349  156.0167 C.ar    1  UNL1        0.1387
     32 C         142.8324  136.1113  157.0095 C.ar    1  UNL1        0.0366
     33 C         142.6419  137.4253  157.7074 C.ar    1  UNL1        0.0007
     34 C         141.4328  138.2628  157.4126 C.ar    1  UNL1        0.0007
     35 C         140.4143  137.7863  156.4199 C.ar    1  UNL1        0.0007
     36 C         140.6049  136.4723  155.7219 C.ar    1  UNL1        0.0366
     37 C         143.2927  133.5686  155.4749 C.3     1  UNL1        0.2525
     38 O         142.0044  134.3209  155.3187 O.3     1  UNL1       -0.4714
@<TRIPOS>BOND
     1    37    38    1
     2    38    31    1
     3    31    32   ar
     4    32    33   ar
     5    33    34   ar
     6    34    30    1
     7    30     1    1
     8     1     2   ar
     9     2     3    2
    10     2     4   ar
    11     4     5    1
    12     4     6   ar
    13     6     7   ar
    14     7     8   ar
    15     8     9   ar
    16     9    16    1
    17    16    17   ar
    18    17    18   ar
    19    18    19   ar
    20    19    22    1
    21    22    23    1
    22    19    20   ar
    23    20    24    1
    24    24    26    1
    25    26    27    1
    26    26    28    2
    27    26    29    2
    28    20    21   ar
    29     9    10   ar
    30    10    11   ar
    31    11    12   ar
    32    12    13   ar
    33    13    14   ar
    34    14    15   ar
    35    34    35   ar
    36    35    36   ar
    37    36    31   ar
    38    15     1   ar
    39    15     6   ar
    40    12     7   ar
    41    21    16   ar
    42    24    25    1
@<TRIPOS>MOLECULE
*****
 38 42 0 0 0
SMALL
GASTEIGER

@<TRIPOS>ATOM
      1 N         141.2139  145.0185  159.5942 N.ar    1  UNL1       -0.2743
      2 C         140.4088  145.3801  160.8070 C.ar    1  UNL1        0.3319
      3 O         139.3322  146.4226  160.8720 O.2     1  UNL1       -0.2463
      4 N         140.8694  144.5163  161.9436 N.ar    1  UNL1       -0.2778
      5 C         140.3342  144.5432  163.3446 C.3     1  UNL1        0.1351
      6 C         141.9591  143.6208  161.4331 C.ar    1  UNL1        0.0827
      7 C         142.7850  142.5628  162.1028 C.ar    1  UNL1        0.0350
      8 C         142.5720  142.2524  163.5548 C.ar    1  UNL1        0.0030
      9 C         143.3979  141.1944  164.2245 C.ar    1  UNL1        0.0017
     10 C         144.4367  140.4468  163.4423 C.ar    1  UNL1        0.0016
     11 C         144.6497  140.7572  161.9903 C.ar    1  UNL1        0.0191
     12 C         143.8238  141.8152  161.3206 C.ar    1  UNL1        0.0828
     13 N         144.0367  142.1256  159.8685 N.ar    1  UNL1       -0.2422
     14 C         143.2109  143.1836  159.1988 C.ar    1  UNL1        0.1175
     15 C         142.1720  143.9312  159.9811 C.ar    1  UNL1        0.0992
     16 C         143.1849  140.8840  165.6766 C.ar    1  UNL1        0.0207
     17 C         143.1401  139.4580  166.1399 C.ar    1  UNL1        0.1021
     18 N         142.9272  139.1476  167.5919 N.ar    1  UNL1       -0.2090
     19 C         142.7591  140.2631  168.5806 C.ar    1  UNL1        0.2400
     20 C         142.8038  141.6890  168.1172 C.ar    1  UNL1        0.1175
     21 C         143.0168  141.9994  166.6652 C.ar    1  UNL1        0.0221
     22 O         142.5461  139.9526  170.0325 O.3     1  UNL1       -0.4553
     23 C         141.2063  139.4752  170.5088 C.3     1  UNL1        0.2543
     24 N         142.6357  142.8045  169.1058 N.pl3   1  UNL1       -0.2142
     25 H         143.3942  143.3969  169.3133 H       1  UNL1        0.1735
     26 S         141.3119  143.0174  169.7784 S.O2    1  UNL1        0.0559
     27 C         139.9882  143.2303  170.4510 C.3     1  UNL1        0.1996
     28 O         140.6366  143.0485  168.4394 O.2     1  UNL1       -0.1544
     29 O         141.9873  142.9864  171.1174 O.2     1  UNL1       -0.1544
     30 C         141.0838  145.6359  158.2332 C.3     1  UNL1        0.1373
     31 C         138.0179  144.0693  155.3358 C.ar    1  UNL1        0.1387
     32 C         138.6793  143.1354  156.3055 C.ar    1  UNL1        0.0366
     33 C         139.7013  143.6576  157.2713 C.ar    1  UNL1        0.0007
     34 C         140.0618  145.1137  157.2674 C.ar    1  UNL1        0.0007
     35 C         139.4004  146.0475  156.2977 C.ar    1  UNL1        0.0007
     36 C         138.3784  145.5253  155.3319 C.ar    1  UNL1        0.0366
     37 C         135.9443  142.5852  154.8379 C.3     1  UNL1        0.2525
     38 O         136.9958  143.5471  154.3699 O.3     1  UNL1       -0.4714
@<TRIPOS>BOND
     1    37    38    1
     2    38    31    1
     3    31    32   ar
     4    32    33   ar
     5    33    34   ar
     6    34    30    1
     7    30     1    1
     8     1     2   ar
     9     2     3    2
    10     2     4   ar
    11     4     5    1
    12     4     6   ar
    13     6     7   ar
    14     7     8   ar
    15     8     9   ar
    16     9    16    1
    17    16    17   ar
    18    17    18   ar
    19    18    19   ar
    20    19    22    1
    21    22    23    1
    22    19    20   ar
    23    20    24    1
    24    24    26    1
    25    26    27    1
    26    26    28    2
    27    26    29    2
    28    20    21   ar
    29     9    10   ar
    30    10    11   ar
    31    11    12   ar
    32    12    13   ar
    33    13    14   ar
    34    14    15   ar
    35    34    35   ar
    36    35    36   ar
    37    36    31   ar
    38    15     1   ar
    39    15     6   ar
    40    12     7   ar
    41    21    16   ar
    42    24    25    1
@<TRIPOS>MOLECULE
*****
 38 42 0 0 0
SMALL
GASTEIGER

@<TRIPOS>ATOM
      1 N         142.0627  139.0920  158.4037 N.ar    1  UNL1       -0.2743
      2 C         143.2725  139.6295  159.1091 C.ar    1  UNL1        0.3319
      3 O         144.5418  140.0904  158.4560 O.2     1  UNL1       -0.2463
      4 N         142.9901  139.6254  160.5823 N.ar    1  UNL1       -0.2778
      5 C         143.9274  140.0813  161.6610 C.3     1  UNL1        0.1351
      6 C         141.6058  139.0853  160.7873 C.ar    1  UNL1        0.0827
      7 C         140.7932  138.8511  162.0262 C.ar    1  UNL1        0.0350
      8 C         141.3663  139.1807  163.3726 C.ar    1  UNL1        0.0030
      9 C         140.5536  138.9465  164.6114 C.ar    1  UNL1        0.0017
     10 C         139.1678  138.3826  164.5038 C.ar    1  UNL1        0.0016
     11 C         138.5947  138.0529  163.1574 C.ar    1  UNL1        0.0191
     12 C         139.4074  138.2872  161.9187 C.ar    1  UNL1        0.0828
     13 N         138.8342  137.9575  160.5722 N.ar    1  UNL1       -0.2422
     14 C         139.6469  138.1918  159.3334 C.ar    1  UNL1        0.1175
     15 C         141.0327  138.7556  159.4410 C.ar    1  UNL1        0.0992
     16 C         141.1268  139.2761  165.9579 C.ar    1  UNL1        0.0207
     17 C         142.5438  138.9053  166.2810 C.ar    1  UNL1        0.1021
     18 N         143.1170  139.2349  167.6274 N.ar    1  UNL1       -0.2090
     19 C         142.2731  139.9354  168.6507 C.ar    1  UNL1        0.2400
     20 C         140.8560  140.3063  168.3276 C.ar    1  UNL1        0.1175
     21 C         140.2829  139.9767  166.9811 C.ar    1  UNL1        0.0221
     22 O         142.8462  140.2650  169.9971 O.3     1  UNL1       -0.4553
     23 C         143.6582  141.5127  170.1816 C.3     1  UNL1        0.2543
     24 N         140.0121  141.0068  169.3508 N.pl3   1  UNL1       -0.2142
     25 H         139.3038  140.5145  169.8253 H       1  UNL1        0.1735
     26 S         140.2474  142.4575  169.6513 S.O2    1  UNL1        0.0559
     27 C         140.4828  143.9081  169.9517 C.3     1  UNL1        0.1996
     28 O         140.3429  142.7462  168.1824 O.2     1  UNL1       -0.1544
     29 O         140.1519  142.1688  171.1201 O.2     1  UNL1       -0.1544
     30 C         141.9099  138.9209  156.9213 C.3     1  UNL1        0.1373
     31 C         142.6794  134.9118  155.0281 C.ar    1  UNL1        0.1387
     32 C         141.2713  135.3783  155.2502 C.ar    1  UNL1        0.0366
     33 C         141.0148  136.7147  155.8813 C.ar    1  UNL1        0.0007
     34 C         142.1664  137.5845  156.2902 C.ar    1  UNL1        0.0007
     35 C         143.5745  137.1180  156.0681 C.ar    1  UNL1        0.0007
     36 C         143.8311  135.7816  155.4370 C.ar    1  UNL1        0.0366
     37 C         142.4781  132.3221  155.0822 C.3     1  UNL1        0.2525
     38 O         142.9361  133.5754  154.3970 O.3     1  UNL1       -0.4714
@<TRIPOS>BOND
     1    37    38    1
     2    38    31    1
     3    31    32   ar
     4    32    33   ar
     5    33    34   ar
     6    34    30    1
     7    30     1    1
     8     1     2   ar
     9     2     3    2
    10     2     4   ar
    11     4     5    1
    12     4     6   ar
    13     6     7   ar
    14     7     8   ar
    15     8     9   ar
    16     9    16    1
    17    16    17   ar
    18    17    18   ar
    19    18    19   ar
    20    19    22    1
    21    22    23    1
    22    19    20   ar
    23    20    24    1
    24    24    26    1
    25    26    27    1
    26    26    28    2
    27    26    29    2
    28    20    21   ar
    29     9    10   ar
    30    10    11   ar
    31    11    12   ar
    32    12    13   ar
    33    13    14   ar
    34    14    15   ar
    35    34    35   ar
    36    35    36   ar
    37    36    31   ar
    38    15     1   ar
    39    15     6   ar
    40    12     7   ar
    41    21    16   ar
    42    24    25    1
@<TRIPOS>MOLECULE
*****
 38 42 0 0 0
SMALL
GASTEIGER

@<TRIPOS>ATOM
      1 N         139.3540  142.9237  164.1250 N.ar    1  UNL1       -0.2743
      2 C         138.6253  141.6186  163.9994 C.ar    1  UNL1        0.3319
      3 O         138.1901  140.7390  165.1338 O.2     1  UNL1       -0.2463
      4 N         138.4083  141.3475  162.5401 N.ar    1  UNL1       -0.2778
      5 C         137.7179  140.1492  161.9591 C.3     1  UNL1        0.1351
      6 C         139.0028  142.4851  161.7639 C.ar    1  UNL1        0.0827
      7 C         139.0874  142.7597  160.2917 C.ar    1  UNL1        0.0350
      8 C         138.5030  141.7856  159.3122 C.ar    1  UNL1        0.0030
      9 C         138.5876  142.0602  157.8400 C.ar    1  UNL1        0.0017
     10 C         139.2568  143.3090  157.3473 C.ar    1  UNL1        0.0016
     11 C         139.8412  144.2832  158.3268 C.ar    1  UNL1        0.0191
     12 C         139.7566  144.0085  159.7990 C.ar    1  UNL1        0.0828
     13 N         140.3410  144.9827  160.7785 N.ar    1  UNL1       -0.2422
     14 C         140.2564  144.7080  162.2507 C.ar    1  UNL1        0.1175
     15 C         139.5873  143.4592  162.7434 C.ar    1  UNL1        0.0992
     16 C         138.0031  141.0861  156.8605 C.ar    1  UNL1        0.0207
     17 C         138.8510  139.9797  156.3064 C.ar    1  UNL1        0.1021
     18 N         138.2666  139.0056  155.3269 N.ar    1  UNL1       -0.2090
     19 C         136.8342  139.1378  154.9014 C.ar    1  UNL1        0.2400
     20 C         135.9864  140.2441  155.4555 C.ar    1  UNL1        0.1175
     21 C         136.5709  141.2183  156.4351 C.ar    1  UNL1        0.0221
     22 O         136.2498  138.1636  153.9219 O.3     1  UNL1       -0.4553
     23 C         137.1513  137.3825  153.0124 C.3     1  UNL1        0.2543
     24 N         134.5541  140.3764  155.0301 N.pl3   1  UNL1       -0.2142
     25 H         134.3363  140.5905  154.0942 H       1  UNL1        0.1735
     26 S         133.4535  140.1825  156.0307 S.O2    1  UNL1        0.0559
     27 C         132.3530  139.9885  157.0313 C.3     1  UNL1        0.1996
     28 O         134.0204  138.8422  156.3944 O.2     1  UNL1       -0.1544
     29 O         132.8867  141.5228  155.6670 O.2     1  UNL1       -0.1544
     30 C         139.7754  143.5784  165.4072 C.3     1  UNL1        0.1373
     31 C         142.3646  141.3422  168.3303 C.ar    1  UNL1        0.1387
     32 C         142.6583  141.2708  166.8611 C.ar    1  UNL1        0.0366
     33 C         141.7952  142.0162  165.8867 C.ar    1  UNL1        0.0007
     34 C         140.6385  142.8330  166.3816 C.ar    1  UNL1        0.0007
     35 C         140.3448  142.9044  167.8508 C.ar    1  UNL1        0.0007
     36 C         141.2079  142.1590  168.8252 C.ar    1  UNL1        0.0366
     37 C         142.6008  139.6802  170.3132 C.3     1  UNL1        0.2525
     38 O         143.2277  140.5968  169.3048 O.3     1  UNL1       -0.4714
@<TRIPOS>BOND
     1    37    38    1
     2    38    31    1
     3    31    32   ar
     4    32    33   ar
     5    33    34   ar
     6    34    30    1
     7    30     1    1
     8     1     2   ar
     9     2     3    2
    10     2     4   ar
    11     4     5    1
    12     4     6   ar
    13     6     7   ar
    14     7     8   ar
    15     8     9   ar
    16     9    16    1
    17    16    17   ar
    18    17    18   ar
    19    18    19   ar
    20    19    22    1
    21    22    23    1
    22    19    20   ar
    23    20    24    1
    24    24    26    1
    25    26    27    1
    26    26    28    2
    27    26    29    2
    28    20    21   ar
    29     9    10   ar
    30    10    11   ar
    31    11    12   ar
    32    12    13   ar
    33    13    14   ar
    34    14    15   ar
    35    34    35   ar
    36    35    36   ar
    37    36    31   ar
    38    15     1   ar
    39    15     6   ar
    40    12     7   ar
    41    21    16   ar
    42    24    25    1
@<TRIPOS>MOLECULE
*****
 38 42 0 0 0
SMALL
GASTEIGER

@<TRIPOS>ATOM
      1 N         142.8865  138.8427  165.5137 N.ar    1  UNL1       -0.2743
      2 C         143.9089  139.0415  164.4343 C.ar    1  UNL1        0.3319
      3 O         145.3895  139.1729  164.6356 O.2     1  UNL1       -0.2463
      4 N         143.1907  139.0858  163.1181 N.ar    1  UNL1       -0.2778
      5 C         143.8270  139.2693  161.7722 C.3     1  UNL1        0.1351
      6 C         141.7245  138.9144  163.3842 C.ar    1  UNL1        0.0827
      7 C         140.5362  138.8758  162.4694 C.ar    1  UNL1        0.0350
      8 C         140.7243  139.0260  160.9889 C.ar    1  UNL1        0.0030
      9 C         139.5361  138.9873  160.0743 C.ar    1  UNL1        0.0017
     10 C         138.1598  138.7985  160.6401 C.ar    1  UNL1        0.0016
     11 C         137.9718  138.6482  162.1207 C.ar    1  UNL1        0.0191
     12 C         139.1600  138.6869  163.0353 C.ar    1  UNL1        0.0828
     13 N         138.9720  138.5367  164.5159 N.ar    1  UNL1       -0.2422
     14 C         140.1602  138.5753  165.4306 C.ar    1  UNL1        0.1175
     15 C         141.5364  138.7642  164.8647 C.ar    1  UNL1        0.0992
     16 C         139.7241  139.1376  158.5936 C.ar    1  UNL1        0.0207
     17 C         138.8293  140.0542  157.8132 C.ar    1  UNL1        0.1021
     18 N         139.0172  140.2044  156.3326 N.ar    1  UNL1       -0.2090
     19 C         140.1001  139.4380  155.6325 C.ar    1  UNL1        0.2400
     20 C         140.9949  138.5214  156.4129 C.ar    1  UNL1        0.1175
     21 C         140.8069  138.3712  157.8935 C.ar    1  UNL1        0.0221
     22 O         140.2880  139.5883  154.1519 O.3     1  UNL1       -0.4553
     23 C         139.5770  138.6644  153.2080 C.3     1  UNL1        0.2543
     24 N         142.0777  137.7550  155.7128 N.pl3   1  UNL1       -0.2142
     25 H         142.6543  138.2071  155.0552 H       1  UNL1        0.1735
     26 S         142.2819  136.3000  156.0146 S.O2    1  UNL1        0.0559
     27 C         142.4862  134.8449  156.3164 C.3     1  UNL1        0.1996
     28 O         143.6143  136.6142  156.6279 O.2     1  UNL1       -0.1544
     29 O         140.9496  135.9858  155.4013 O.2     1  UNL1       -0.1544
     30 C         143.1652  138.7405  166.9841 C.3     1  UNL1        0.1373
     31 C         141.7494  141.9759  169.7729 C.ar    1  UNL1        0.1387
     32 C         142.1254  142.3145  168.3608 C.ar    1  UNL1        0.0366
     33 C         142.5973  141.2360  167.4312 C.ar    1  UNL1        0.0007
     34 C         142.6932  139.8190  167.9137 C.ar    1  UNL1        0.0007
     35 C         142.3173  139.4804  169.3258 C.ar    1  UNL1        0.0007
     36 C         141.8454  140.5589  170.2554 C.ar    1  UNL1        0.0366
     37 C         140.5015  144.2205  170.1659 C.3     1  UNL1        0.2525
     38 O         141.2775  143.0543  170.7025 O.3     1  UNL1       -0.4714
@<TRIPOS>BOND
     1    37    38    1
     2    38    31    1
     3    31    32   ar
     4    32    33   ar
     5    33    34   ar
     6    34    30    1
     7    30     1    1
     8     1     2   ar
     9     2     3    2
    10     2     4   ar
    11     4     5    1
    12     4     6   ar
    13     6     7   ar
    14     7     8   ar
    15     8     9   ar
    16     9    16    1
    17    16    17   ar
    18    17    18   ar
    19    18    19   ar
    20    19    22    1
    21    22    23    1
    22    19    20   ar
    23    20    24    1
    24    24    26    1
    25    26    27    1
    26    26    28    2
    27    26    29    2
    28    20    21   ar
    29     9    10   ar
    30    10    11   ar
    31    11    12   ar
    32    12    13   ar
    33    13    14   ar
    34    14    15   ar
    35    34    35   ar
    36    35    36   ar
    37    36    31   ar
    38    15     1   ar
    39    15     6   ar
    40    12     7   ar
    41    21    16   ar
    42    24    25    1
@<TRIPOS>MOLECULE
*****
 38 42 0 0 0
SMALL
GASTEIGER

@<TRIPOS>ATOM
      1 N         138.7693  140.0586  164.1576 N.ar    1  UNL1       -0.2743
      2 C         138.5540  139.3739  162.8405 C.ar    1  UNL1        0.3319
      3 O         138.1309  137.9478  162.6469 O.2     1  UNL1       -0.2463
      4 N         138.8361  140.3655  161.7510 N.ar    1  UNL1       -0.2778
      5 C         138.7445  140.1052  160.2766 C.3     1  UNL1        0.1351
      6 C         139.2256  141.6631  162.3947 C.ar    1  UNL1        0.0827
      7 C         139.6127  142.9929  161.8186 C.ar    1  UNL1        0.0350
      8 C         139.6539  143.1825  160.3312 C.ar    1  UNL1        0.0030
      9 C         140.0409  144.5123  159.7552 C.ar    1  UNL1        0.0017
     10 C         140.3867  145.6525  160.6665 C.ar    1  UNL1        0.0016
     11 C         140.3454  145.4628  162.1539 C.ar    1  UNL1        0.0191
     12 C         139.9584  144.1331  162.7299 C.ar    1  UNL1        0.0828
     13 N         139.9172  143.9434  164.2174 N.ar    1  UNL1       -0.2422
     14 C         139.5302  142.6136  164.7934 C.ar    1  UNL1        0.1175
     15 C         139.1844  141.4734  163.8821 C.ar    1  UNL1        0.0992
     16 C         140.0821  144.7020  158.2678 C.ar    1  UNL1        0.0207
     17 C         140.9193  145.7960  157.6742 C.ar    1  UNL1        0.1021
     18 N         140.9606  145.9857  156.1868 N.ar    1  UNL1       -0.2090
     19 C         140.1647  145.0814  155.2930 C.ar    1  UNL1        0.2400
     20 C         139.3276  143.9874  155.8866 C.ar    1  UNL1        0.1175
     21 C         139.2863  143.7977  157.3740 C.ar    1  UNL1        0.0221
     22 O         140.2060  145.2711  153.8056 O.3     1  UNL1       -0.4553
     23 C         141.2895  146.1026  153.1854 C.3     1  UNL1        0.2543
     24 N         138.5317  143.0831  154.9928 N.pl3   1  UNL1       -0.2142
     25 H         138.7959  142.9640  154.0520 H       1  UNL1        0.1735
     26 S         137.3333  142.3603  155.5326 S.O2    1  UNL1        0.0559
     27 C         136.1348  141.6376  156.0723 C.3     1  UNL1        0.1996
     28 O         138.1219  141.0851  155.5759 O.2     1  UNL1       -0.1544
     29 O         136.5447  143.6356  155.4893 O.2     1  UNL1       -0.1544
     30 C         138.5993  139.4376  165.5125 C.3     1  UNL1        0.1373
     31 C         141.8421  139.8593  168.6037 C.ar    1  UNL1        0.1387
     32 C         142.1966  139.5174  167.1869 C.ar    1  UNL1        0.0366
     33 C         141.1156  139.3768  166.1565 C.ar    1  UNL1        0.0007
     34 C         139.6803  139.5781  166.5429 C.ar    1  UNL1        0.0007
     35 C         139.3259  139.9200  167.9597 C.ar    1  UNL1        0.0007
     36 C         140.4068  140.0606  168.9901 C.ar    1  UNL1        0.0366
     37 C         143.4487  141.3593  169.9890 C.3     1  UNL1        0.2525
     38 O         142.9231  139.9999  169.6342 O.3     1  UNL1       -0.4714
@<TRIPOS>BOND
     1    37    38    1
     2    38    31    1
     3    31    32   ar
     4    32    33   ar
     5    33    34   ar
     6    34    30    1
     7    30     1    1
     8     1     2   ar
     9     2     3    2
    10     2     4   ar
    11     4     5    1
    12     4     6   ar
    13     6     7   ar
    14     7     8   ar
    15     8     9   ar
    16     9    16    1
    17    16    17   ar
    18    17    18   ar
    19    18    19   ar
    20    19    22    1
    21    22    23    1
    22    19    20   ar
    23    20    24    1
    24    24    26    1
    25    26    27    1
    26    26    28    2
    27    26    29    2
    28    20    21   ar
    29     9    10   ar
    30    10    11   ar
    31    11    12   ar
    32    12    13   ar
    33    13    14   ar
    34    14    15   ar
    35    34    35   ar
    36    35    36   ar
    37    36    31   ar
    38    15     1   ar
    39    15     6   ar
    40    12     7   ar
    41    21    16   ar
    42    24    25    1
@<TRIPOS>MOLECULE
*****
 38 42 0 0 0
SMALL
GASTEIGER

@<TRIPOS>ATOM
      1 N         143.0190  141.3644  158.4718 N.ar    1  UNL1       -0.2743
      2 C         142.9361  140.0164  159.1244 C.ar    1  UNL1        0.3319
      3 O         143.2945  138.7056  158.4891 O.2     1  UNL1       -0.2463
      4 N         142.4318  140.2091  160.5239 N.ar    1  UNL1       -0.2778
      5 C         142.1974  139.1250  161.5338 C.3     1  UNL1        0.1351
      6 C         142.2031  141.6763  160.7362 C.ar    1  UNL1        0.0827
      7 C         141.7112  142.4543  161.9206 C.ar    1  UNL1        0.0350
      8 C         141.3483  141.7403  163.1888 C.ar    1  UNL1        0.0030
      9 C         140.8564  142.5184  164.3731 C.ar    1  UNL1        0.0017
     10 C         140.7275  144.0105  164.2892 C.ar    1  UNL1        0.0016
     11 C         141.0904  144.7245  163.0210 C.ar    1  UNL1        0.0191
     12 C         141.5822  143.9464  161.8367 C.ar    1  UNL1        0.0828
     13 N         141.9452  144.6605  160.5684 N.ar    1  UNL1       -0.2422
     14 C         142.4370  143.8824  159.3841 C.ar    1  UNL1        0.1175
     15 C         142.5660  142.3903  159.4680 C.ar    1  UNL1        0.0992
     16 C         140.4935  141.8044  165.6414 C.ar    1  UNL1        0.0207
     17 C         140.0132  140.3842  165.5915 C.ar    1  UNL1        0.1021
     18 N         139.6503  139.6702  166.8597 N.ar    1  UNL1       -0.2090
     19 C         139.7677  140.3764  168.1780 C.ar    1  UNL1        0.2400
     20 C         140.2479  141.7965  168.2279 C.ar    1  UNL1        0.1175
     21 C         140.6109  142.5105  166.9596 C.ar    1  UNL1        0.0221
     22 O         139.4047  139.6623  169.4462 O.3     1  UNL1       -0.4553
     23 C         138.1982  140.0894  170.2284 C.3     1  UNL1        0.2543
     24 N         140.3653  142.5026  169.5460 N.pl3   1  UNL1       -0.2142
     25 H         139.5546  142.7332  170.0549 H       1  UNL1        0.1735
     26 S         141.7178  142.8575  170.0890 S.O2    1  UNL1        0.0559
     27 C         143.0703  143.2124  170.6319 C.3     1  UNL1        0.1996
     28 O         141.2652  144.2732  170.2912 O.2     1  UNL1       -0.1544
     29 O         142.1705  141.4418  169.8867 O.2     1  UNL1       -0.1544
     30 C         143.4749  141.6385  157.0692 C.3     1  UNL1        0.1373
     31 C         147.8587  142.1403  156.1860 C.ar    1  UNL1        0.1387
     32 C         147.0045  141.2962  155.2873 C.ar    1  UNL1        0.0366
     33 C         145.5432  141.1289  155.5817 C.ar    1  UNL1        0.0007
     34 C         144.9362  141.8058  156.7748 C.ar    1  UNL1        0.0007
     35 C         145.7904  142.6499  157.6735 C.ar    1  UNL1        0.0007
     36 C         147.2517  142.8172  157.3791 C.ar    1  UNL1        0.0366
     37 C         149.9595  141.5120  154.7926 C.3     1  UNL1        0.2525
     38 O         149.3200  142.3077  155.8916 O.3     1  UNL1       -0.4714
@<TRIPOS>BOND
     1    37    38    1
     2    38    31    1
     3    31    32   ar
     4    32    33   ar
     5    33    34   ar
     6    34    30    1
     7    30     1    1
     8     1     2   ar
     9     2     3    2
    10     2     4   ar
    11     4     5    1
    12     4     6   ar
    13     6     7   ar
    14     7     8   ar
    15     8     9   ar
    16     9    16    1
    17    16    17   ar
    18    17    18   ar
    19    18    19   ar
    20    19    22    1
    21    22    23    1
    22    19    20   ar
    23    20    24    1
    24    24    26    1
    25    26    27    1
    26    26    28    2
    27    26    29    2
    28    20    21   ar
    29     9    10   ar
    30    10    11   ar
    31    11    12   ar
    32    12    13   ar
    33    13    14   ar
    34    14    15   ar
    35    34    35   ar
    36    35    36   ar
    37    36    31   ar
    38    15     1   ar
    39    15     6   ar
    40    12     7   ar
    41    21    16   ar
    42    24    25    1
