@<TRIPOS>MOLECULE
*****
 27 29 0 0 0
SMALL
GASTEIGER

@<TRIPOS>ATOM
      1 C         139.9753  143.7421  165.5421 C.ar    1  UNL1        0.0621
      2 C         141.1168  143.4963  164.6006 C.ar    1  UNL1        0.0294
      3 C         142.3085  142.7077  165.0565 C.ar    1  UNL1        0.0519
      4 C         142.3587  142.1649  166.4540 C.ar    1  UNL1        0.0486
      5 C         141.2172  142.4107  167.3955 C.ar    1  UNL1        0.1293
      6 N         140.0255  143.1993  166.9396 N.ar    1  UNL1       -0.2351
      7 N         143.4501  142.4618  164.1150 N.pl3   1  UNL1       -0.3027
      8 C         144.5964  141.5914  164.5373 C.3     1  UNL1        0.1231
      9 C         145.7380  141.3456  163.5959 C.3     1  UNL1        0.1636
     10 O         145.7333  141.9701  162.2321 O.3     1  UNL1       -0.3501
     11 C         144.5870  142.8405  161.8098 C.3     1  UNL1        0.1636
     12 C         143.4454  143.0864  162.7513 C.3     1  UNL1        0.1231
     13 N         141.2673  141.8679  168.7929 N.pl3   1  UNL1       -0.3197
     14 H         141.6274  142.4212  169.5233 H       1  UNL1        0.1481
     15 C         140.7688  140.4821  169.0776 C.3     1  UNL1        0.0705
     16 C         141.5859  139.5498  169.9221 C.3     1  UNL1        0.0212
     17 C         139.4531  140.0286  168.5178 C.3     1  UNL1        0.0212
     18 C         138.7835  144.5308  165.0862 C.3     1  UNL1        0.0556
     19 C         137.5818  143.8225  164.5347 C.3     1  UNL1        0.0916
     20 C         138.2046  140.1197  163.5515 C.ar    1  UNL1        0.1377
     21 O         138.2044  141.2232  164.5675 O.2     1  UNL1       -0.4430
     22 C         137.7346  142.4766  163.8904 C.ar    1  UNL1        0.2053
     23 N         137.4445  142.1477  162.4559 N.ar    1  UNL1       -0.2168
     24 C         137.7350  140.6911  162.2464 C.ar    1  UNL1        0.0923
     25 C         137.5825  139.9380  160.9582 C.3     1  UNL1        0.0551
     26 C         138.7354  138.1844  165.2017 C.3     1  UNL1        0.0085
     27 C         138.6042  138.6949  163.7973 C.3     1  UNL1        0.0658
@<TRIPOS>BOND
     1    26    27    1
     2    27    20    1
     3    20    21   ar
     4    21    22   ar
     5    22    19    1
     6    19    18    1
     7    18     1    1
     8     1     2   ar
     9     2     3   ar
    10     3     7    1
    11     7     8    1
    12     8     9    1
    13     9    10    1
    14    10    11    1
    15    11    12    1
    16     3     4   ar
    17     4     5   ar
    18     5    13    1
    19    13    15    1
    20    15    16    1
    21    15    17    1
    22     5     6   ar
    23    22    23   ar
    24    23    24   ar
    25    24    25    1
    26    24    20   ar
    27     6     1   ar
    28    12     7    1
    29    13    14    1
@<TRIPOS>MOLECULE
*****
 27 29 0 0 0
SMALL
GASTEIGER

@<TRIPOS>ATOM
      1 C         143.7180  141.8610  165.5003 C.ar    1  UNL1        0.0621
      2 C         143.0844  142.2558  166.8013 C.ar    1  UNL1        0.0294
      3 C         142.2611  141.2626  167.5665 C.ar    1  UNL1        0.0519
      4 C         142.0714  139.8744  167.0307 C.ar    1  UNL1        0.0486
      5 C         142.7050  139.4796  165.7297 C.ar    1  UNL1        0.1293
      6 N         143.5282  140.4728  164.9645 N.ar    1  UNL1       -0.2351
      7 N         141.6275  141.6574  168.8676 N.pl3   1  UNL1       -0.3027
      8 C         140.7186  142.8491  168.9280 C.3     1  UNL1        0.1231
      9 C         140.0850  143.2440  170.2289 C.3     1  UNL1        0.1636
     10 O         140.3603  142.4471  171.4696 O.3     1  UNL1       -0.3501
     11 C         141.2693  141.2555  171.4093 C.3     1  UNL1        0.1636
     12 C         141.9029  140.8606  170.1082 C.3     1  UNL1        0.1231
     13 N         142.5152  138.0914  165.1939 N.pl3   1  UNL1       -0.3197
     14 H         143.1270  137.3703  165.4676 H       1  UNL1        0.1481
     15 C         141.3934  137.8021  164.2412 C.3     1  UNL1        0.0705
     16 C         141.6627  137.7217  162.7678 C.3     1  UNL1        0.0212
     17 C         140.0022  137.5931  164.7619 C.3     1  UNL1        0.0212
     18 C         144.5413  142.8543  164.7350 C.3     1  UNL1        0.0556
     19 C         144.0300  144.2486  164.5245 C.3     1  UNL1        0.0916
     20 C         140.4212  144.7160  163.1739 C.ar    1  UNL1        0.1377
     21 O         141.3730  144.4344  164.2986 O.2     1  UNL1       -0.4430
     22 C         142.7673  144.4750  163.7470 C.ar    1  UNL1        0.2053
     23 N         142.6773  144.7817  162.2815 N.ar    1  UNL1       -0.2168
     24 C         141.2274  144.9307  161.9272 C.ar    1  UNL1        0.0923
     25 C         140.6798  145.2400  160.5655 C.3     1  UNL1        0.0551
     26 C         138.2450  144.3441  164.5435 C.3     1  UNL1        0.0085
     27 C         138.9259  144.7730  163.2776 C.3     1  UNL1        0.0658
@<TRIPOS>BOND
     1    26    27    1
     2    27    20    1
     3    20    21   ar
     4    21    22   ar
     5    22    19    1
     6    19    18    1
     7    18     1    1
     8     1     2   ar
     9     2     3   ar
    10     3     7    1
    11     7     8    1
    12     8     9    1
    13     9    10    1
    14    10    11    1
    15    11    12    1
    16     3     4   ar
    17     4     5   ar
    18     5    13    1
    19    13    15    1
    20    15    16    1
    21    15    17    1
    22     5     6   ar
    23    22    23   ar
    24    23    24   ar
    25    24    25    1
    26    24    20   ar
    27     6     1   ar
    28    12     7    1
    29    13    14    1
@<TRIPOS>MOLECULE
*****
 27 29 0 0 0
SMALL
GASTEIGER

@<TRIPOS>ATOM
      1 C         143.6146  142.2215  165.0631 C.ar    1  UNL1        0.0621
      2 C         142.6192  142.9386  164.2001 C.ar    1  UNL1        0.0294
      3 C         141.2661  143.2863  164.7461 C.ar    1  UNL1        0.0519
      4 C         140.9084  142.9168  166.1552 C.ar    1  UNL1        0.0486
      5 C         141.9038  142.1997  167.0182 C.ar    1  UNL1        0.1293
      6 N         143.2569  141.8520  166.4722 N.ar    1  UNL1       -0.2351
      7 N         140.2706  144.0034  163.8831 N.pl3   1  UNL1       -0.3027
      8 C         138.8239  143.6088  163.9203 C.3     1  UNL1        0.1231
      9 C         137.8284  144.3259  163.0574 C.3     1  UNL1        0.1636
     10 O         138.2796  145.4377  162.1570 O.3     1  UNL1       -0.3501
     11 C         139.7263  145.8323  162.1198 C.3     1  UNL1        0.1636
     12 C         140.7218  145.1151  162.9828 C.3     1  UNL1        0.1231
     13 N         141.5461  141.8302  168.4273 N.pl3   1  UNL1       -0.3197
     14 H         141.2451  140.9162  168.6353 H       1  UNL1        0.1481
     15 C         141.6470  142.8533  169.5196 C.3     1  UNL1        0.0705
     16 C         140.4934  143.7712  169.7964 C.3     1  UNL1        0.0212
     17 C         142.9016  142.9585  170.3351 C.3     1  UNL1        0.0212
     18 C         144.9678  141.8738  164.5170 C.3     1  UNL1        0.0556
     19 C         145.2949  140.4508  164.1736 C.3     1  UNL1        0.0916
     20 C         142.3525  138.0330  163.4242 C.ar    1  UNL1        0.1377
     21 O         143.2042  138.7997  164.3921 O.2     1  UNL1       -0.4430
     22 C         144.2353  139.5536  163.6057 C.ar    1  UNL1        0.2053
     23 N         144.0209  139.2530  162.1519 N.ar    1  UNL1       -0.2168
     24 C         142.8572  138.3131  162.0397 C.ar    1  UNL1        0.0923
     25 C         142.2968  137.7521  160.7666 C.3     1  UNL1        0.0551
     26 C         139.9495  137.7309  164.3647 C.3     1  UNL1        0.0085
     27 C         141.1986  137.1425  163.7785 C.3     1  UNL1        0.0658
@<TRIPOS>BOND
     1    26    27    1
     2    27    20    1
     3    20    21   ar
     4    21    22   ar
     5    22    19    1
     6    19    18    1
     7    18     1    1
     8     1     2   ar
     9     2     3   ar
    10     3     7    1
    11     7     8    1
    12     8     9    1
    13     9    10    1
    14    10    11    1
    15    11    12    1
    16     3     4   ar
    17     4     5   ar
    18     5    13    1
    19    13    15    1
    20    15    16    1
    21    15    17    1
    22     5     6   ar
    23    22    23   ar
    24    23    24   ar
    25    24    25    1
    26    24    20   ar
    27     6     1   ar
    28    12     7    1
    29    13    14    1
@<TRIPOS>MOLECULE
*****
 27 29 0 0 0
SMALL
GASTEIGER

@<TRIPOS>ATOM
      1 C         140.2921  143.1995  164.9016 C.ar    1  UNL1        0.0621
      2 C         140.3359  143.0638  166.3948 C.ar    1  UNL1        0.0294
      3 C         140.2939  141.7037  167.0258 C.ar    1  UNL1        0.0519
      4 C         140.2081  140.4792  166.1636 C.ar    1  UNL1        0.0486
      5 C         140.1643  140.6149  164.6705 C.ar    1  UNL1        0.1293
      6 N         140.2063  141.9751  164.0395 N.ar    1  UNL1       -0.2351
      7 N         140.3377  141.5680  168.5191 N.pl3   1  UNL1       -0.3027
      8 C         140.5434  142.7813  169.3767 C.3     1  UNL1        0.1231
      9 C         140.5872  142.6456  170.8699 C.3     1  UNL1        0.1636
     10 O         140.4254  141.2965  171.5055 O.3     1  UNL1       -0.3501
     11 C         140.2197  140.0832  170.6478 C.3     1  UNL1        0.1636
     12 C         140.1759  140.2190  169.1546 C.3     1  UNL1        0.1231
     13 N         140.0786  139.3905  163.8083 N.pl3   1  UNL1       -0.3197
     14 H         140.0273  139.4804  162.8292 H       1  UNL1        0.1481
     15 C         140.0709  138.0290  164.4378 C.3     1  UNL1        0.0705
     16 C         138.7968  137.4680  164.9961 C.3     1  UNL1        0.0212
     17 C         141.3375  137.2285  164.5089 C.3     1  UNL1        0.0212
     18 C         140.3340  144.5597  164.2705 C.3     1  UNL1        0.0556
     19 C         141.6472  145.1534  163.8546 C.3     1  UNL1        0.0916
     20 C         144.5733  142.7021  163.1510 C.ar    1  UNL1        0.1377
     21 O         143.6580  143.4101  164.1055 O.2     1  UNL1       -0.4430
     22 C         142.7280  144.2713  163.3033 C.ar    1  UNL1        0.2053
     23 N         143.0686  144.0957  161.8531 N.ar    1  UNL1       -0.2168
     24 C         144.2090  143.1259  161.7589 C.ar    1  UNL1        0.0923
     25 C         144.8693  142.6614  160.4947 C.3     1  UNL1        0.0551
     26 C         145.3122  140.3778  164.0463 C.3     1  UNL1        0.0085
     27 C         145.6618  141.7395  163.5232 C.3     1  UNL1        0.0658
@<TRIPOS>BOND
     1    26    27    1
     2    27    20    1
     3    20    21   ar
     4    21    22   ar
     5    22    19    1
     6    19    18    1
     7    18     1    1
     8     1     2   ar
     9     2     3   ar
    10     3     7    1
    11     7     8    1
    12     8     9    1
    13     9    10    1
    14    10    11    1
    15    11    12    1
    16     3     4   ar
    17     4     5   ar
    18     5    13    1
    19    13    15    1
    20    15    16    1
    21    15    17    1
    22     5     6   ar
    23    22    23   ar
    24    23    24   ar
    25    24    25    1
    26    24    20   ar
    27     6     1   ar
    28    12     7    1
    29    13    14    1
@<TRIPOS>MOLECULE
*****
 27 29 0 0 0
SMALL
GASTEIGER

@<TRIPOS>ATOM
      1 C         139.3008  139.9248  165.6856 C.ar    1  UNL1        0.0621
      2 C         139.7863  140.1358  167.0891 C.ar    1  UNL1        0.0294
      3 C         140.4237  141.4378  167.4743 C.ar    1  UNL1        0.0519
      4 C         140.5757  142.5287  166.4561 C.ar    1  UNL1        0.0486
      5 C         140.0902  142.3177  165.0527 C.ar    1  UNL1        0.1293
      6 N         139.4528  141.0157  164.6674 N.ar    1  UNL1       -0.2351
      7 N         140.9092  141.6489  168.8778 N.pl3   1  UNL1       -0.3027
      8 C         141.9679  142.6736  169.1591 C.3     1  UNL1        0.1231
      9 C         142.4534  142.8847  170.5625 C.3     1  UNL1        0.1636
     10 O         141.8802  142.0711  171.6848 O.3     1  UNL1       -0.3501
     11 C         140.8215  141.0463  171.4036 C.3     1  UNL1        0.1636
     12 C         140.3360  140.8352  170.0001 C.3     1  UNL1        0.1231
     13 N         140.2422  143.4087  164.0345 N.pl3   1  UNL1       -0.3197
     14 H         141.1003  143.5301  163.5674 H       1  UNL1        0.1481
     15 C         139.0867  144.3146  163.7278 C.3     1  UNL1        0.0705
     16 C         139.1317  145.2057  162.5220 C.3     1  UNL1        0.0212
     17 C         137.8861  144.3296  164.6270 C.3     1  UNL1        0.0212
     18 C         138.6634  138.6227  165.3003 C.3     1  UNL1        0.0556
     19 C         139.5139  137.4845  164.8195 C.3     1  UNL1        0.0916
     20 C         142.8816  138.4735  163.1624 C.ar    1  UNL1        0.1377
     21 O         141.9796  138.4082  164.3592 O.2     1  UNL1       -0.4430
     22 C         140.6977  137.7529  163.9382 C.ar    1  UNL1        0.2053
     23 N         140.8073  137.4131  162.4814 N.ar    1  UNL1       -0.2168
     24 C         142.1571  137.8584  162.0018 C.ar    1  UNL1        0.0923
     25 C         142.6889  137.7141  160.6068 C.3     1  UNL1        0.0551
     26 C         144.7792  139.8300  164.3066 C.3     1  UNL1        0.0085
     27 C         144.2652  139.0521  163.1316 C.3     1  UNL1        0.0658
@<TRIPOS>BOND
     1    26    27    1
     2    27    20    1
     3    20    21   ar
     4    21    22   ar
     5    22    19    1
     6    19    18    1
     7    18     1    1
     8     1     2   ar
     9     2     3   ar
    10     3     7    1
    11     7     8    1
    12     8     9    1
    13     9    10    1
    14    10    11    1
    15    11    12    1
    16     3     4   ar
    17     4     5   ar
    18     5    13    1
    19    13    15    1
    20    15    16    1
    21    15    17    1
    22     5     6   ar
    23    22    23   ar
    24    23    24   ar
    25    24    25    1
    26    24    20   ar
    27     6     1   ar
    28    12     7    1
    29    13    14    1
@<TRIPOS>MOLECULE
*****
 27 29 0 0 0
SMALL
GASTEIGER

@<TRIPOS>ATOM
      1 C         142.6340  139.6694  165.5514 C.ar    1  UNL1        0.0621
      2 C         142.0009  140.0031  166.8696 C.ar    1  UNL1        0.0294
      3 C         142.2372  141.3450  167.4968 C.ar    1  UNL1        0.0519
      4 C         143.1066  142.3533  166.8057 C.ar    1  UNL1        0.0486
      5 C         143.7397  142.0196  165.4875 C.ar    1  UNL1        0.1293
      6 N         143.5034  140.6777  164.8603 N.ar    1  UNL1       -0.2351
      7 N         141.6041  141.6788  168.8151 N.pl3   1  UNL1       -0.3027
      8 C         140.7235  142.8866  168.9398 C.3     1  UNL1        0.1231
      9 C         140.0904  143.2204  170.2580 C.3     1  UNL1        0.1636
     10 O         140.3379  142.3463  171.4517 O.3     1  UNL1       -0.3501
     11 C         141.2185  141.1384  171.3270 C.3     1  UNL1        0.1636
     12 C         141.8516  140.8047  170.0087 C.3     1  UNL1        0.1231
     13 N         144.6091  143.0278  164.7964 N.pl3   1  UNL1       -0.3197
     14 H         145.5392  143.1599  165.0907 H       1  UNL1        0.1481
     15 C         144.0614  143.8349  163.6568 C.3     1  UNL1        0.0705
     16 C         144.4210  143.4790  162.2447 C.3     1  UNL1        0.0212
     17 C         143.1539  144.9978  163.9293 C.3     1  UNL1        0.0212
     18 C         142.3977  138.3275  164.9242 C.3     1  UNL1        0.0556
     19 C         141.0046  137.7799  164.8270 C.3     1  UNL1        0.0916
     20 C         138.3043  140.1969  163.4369 C.ar    1  UNL1        0.1377
     21 O         139.2808  139.7969  164.5031 O.2     1  UNL1       -0.4430
     22 C         139.9549  138.5313  164.0630 C.ar    1  UNL1        0.2053
     23 N         139.3952  138.1490  162.7249 N.ar    1  UNL1       -0.2168
     24 C         138.3751  139.1783  162.3379 C.ar    1  UNL1        0.0923
     25 C         137.5675  139.1876  161.0739 C.3     1  UNL1        0.0551
     26 C         137.8136  142.6129  164.2567 C.3     1  UNL1        0.0085
     27 C         137.4135  141.4034  163.4648 C.3     1  UNL1        0.0658
@<TRIPOS>BOND
     1    26    27    1
     2    27    20    1
     3    20    21   ar
     4    21    22   ar
     5    22    19    1
     6    19    18    1
     7    18     1    1
     8     1     2   ar
     9     2     3   ar
    10     3     7    1
    11     7     8    1
    12     8     9    1
    13     9    10    1
    14    10    11    1
    15    11    12    1
    16     3     4   ar
    17     4     5   ar
    18     5    13    1
    19    13    15    1
    20    15    16    1
    21    15    17    1
    22     5     6   ar
    23    22    23   ar
    24    23    24   ar
    25    24    25    1
    26    24    20   ar
    27     6     1   ar
    28    12     7    1
    29    13    14    1
@<TRIPOS>MOLECULE
*****
 27 29 0 0 0
SMALL
GASTEIGER

@<TRIPOS>ATOM
      1 C         140.2715  144.0102  164.9671 C.ar    1  UNL1        0.0621
      2 C         140.1635  143.0507  166.1149 C.ar    1  UNL1        0.0294
      3 C         141.3669  142.2725  166.5577 C.ar    1  UNL1        0.0519
      4 C         142.6784  142.4538  165.8526 C.ar    1  UNL1        0.0486
      5 C         142.7864  143.4133  164.7047 C.ar    1  UNL1        0.1293
      6 N         141.5830  144.1915  164.2620 N.ar    1  UNL1       -0.2351
      7 N         141.2589  141.3129  167.7056 N.pl3   1  UNL1       -0.3027
      8 C         142.4443  140.4852  168.1053 C.3     1  UNL1        0.1231
      9 C         142.3364  139.5257  169.2531 C.3     1  UNL1        0.1636
     10 O         141.0430  139.3938  170.0013 O.3     1  UNL1       -0.3501
     11 C         139.8575  140.2215  169.6017 C.3     1  UNL1        0.1636
     12 C         139.9655  141.1810  168.4537 C.3     1  UNL1        0.1231
     13 N         144.0979  143.5946  163.9996 N.pl3   1  UNL1       -0.3197
     14 H         144.5877  144.4446  164.0820 H       1  UNL1        0.1481
     15 C         144.6631  142.4808  163.1690 C.3     1  UNL1        0.0705
     16 C         145.7536  141.6118  163.7218 C.3     1  UNL1        0.0212
     17 C         144.1377  142.2360  161.7854 C.3     1  UNL1        0.0212
     18 C         139.0680  144.7885  164.5243 C.3     1  UNL1        0.0556
     19 C         137.8363  144.0672  164.0633 C.3     1  UNL1        0.0916
     20 C         137.8035  141.0777  161.5878 C.ar    1  UNL1        0.1377
     21 O         137.5845  141.6461  162.9586 O.2     1  UNL1       -0.4430
     22 C         137.9152  143.1085  162.9122 C.ar    1  UNL1        0.2053
     23 N         138.3384  143.4440  161.5128 N.ar    1  UNL1       -0.2168
     24 C         138.2694  142.1889  160.6943 C.ar    1  UNL1        0.0923
     25 C         138.6070  142.0665  159.2380 C.3     1  UNL1        0.0551
     26 C         138.0839  138.5390  162.0633 C.3     1  UNL1        0.0085
     27 C         137.5934  139.6491  161.1818 C.3     1  UNL1        0.0658
@<TRIPOS>BOND
     1    26    27    1
     2    27    20    1
     3    20    21   ar
     4    21    22   ar
     5    22    19    1
     6    19    18    1
     7    18     1    1
     8     1     2   ar
     9     2     3   ar
    10     3     7    1
    11     7     8    1
    12     8     9    1
    13     9    10    1
    14    10    11    1
    15    11    12    1
    16     3     4   ar
    17     4     5   ar
    18     5    13    1
    19    13    15    1
    20    15    16    1
    21    15    17    1
    22     5     6   ar
    23    22    23   ar
    24    23    24   ar
    25    24    25    1
    26    24    20   ar
    27     6     1   ar
    28    12     7    1
    29    13    14    1
@<TRIPOS>MOLECULE
*****
 27 29 0 0 0
SMALL
GASTEIGER

@<TRIPOS>ATOM
      1 C         140.1303  144.5383  163.6719 C.ar    1  UNL1        0.0621
      2 C         141.1707  143.5248  164.0462 C.ar    1  UNL1        0.0294
      3 C         142.2995  143.2260  163.1047 C.ar    1  UNL1        0.0519
      4 C         142.3879  143.9407  161.7889 C.ar    1  UNL1        0.0486
      5 C         141.3474  144.9542  161.4146 C.ar    1  UNL1        0.1293
      6 N         140.2186  145.2531  162.3561 N.ar    1  UNL1       -0.2351
      7 N         143.3400  142.2124  163.4790 N.pl3   1  UNL1       -0.3027
      8 C         142.9246  140.8543  163.9619 C.3     1  UNL1        0.1231
      9 C         143.9650  139.8407  164.3362 C.3     1  UNL1        0.1636
     10 O         145.4209  140.1852  164.2276 O.3     1  UNL1       -0.3501
     11 C         145.8363  141.5432  163.7448 C.3     1  UNL1        0.1636
     12 C         144.7958  142.5568  163.3705 C.3     1  UNL1        0.1231
     13 N         141.4358  145.6690  160.0988 N.pl3   1  UNL1       -0.3197
     14 H         141.9425  146.5101  160.0286 H       1  UNL1        0.1481
     15 C         140.7522  145.1021  158.8900 C.3     1  UNL1        0.0705
     16 C         140.9843  145.7149  157.5407 C.3     1  UNL1        0.0212
     17 C         139.8363  143.9224  159.0304 C.3     1  UNL1        0.0212
     18 C         139.0014  144.8372  164.6134 C.3     1  UNL1        0.0556
     19 C         137.7816  143.9643  164.6229 C.3     1  UNL1        0.0916
     20 C         138.2520  140.1133  164.5049 C.ar    1  UNL1        0.1377
     21 O         138.2427  141.4096  165.2597 O.2     1  UNL1       -0.4430
     22 C         137.9006  142.5056  164.2944 C.ar    1  UNL1        0.2053
     23 N         137.6985  141.8867  162.9430 N.ar    1  UNL1       -0.2168
     24 C         137.9157  140.4082  163.0731 C.ar    1  UNL1        0.0923
     25 C         137.8143  139.4015  161.9658 C.3     1  UNL1        0.0551
     26 C         138.0134  138.3882  166.4328 C.3     1  UNL1        0.0085
     27 C         138.5460  138.7598  165.0807 C.3     1  UNL1        0.0658
@<TRIPOS>BOND
     1    26    27    1
     2    27    20    1
     3    20    21   ar
     4    21    22   ar
     5    22    19    1
     6    19    18    1
     7    18     1    1
     8     1     2   ar
     9     2     3   ar
    10     3     7    1
    11     7     8    1
    12     8     9    1
    13     9    10    1
    14    10    11    1
    15    11    12    1
    16     3     4   ar
    17     4     5   ar
    18     5    13    1
    19    13    15    1
    20    15    16    1
    21    15    17    1
    22     5     6   ar
    23    22    23   ar
    24    23    24   ar
    25    24    25    1
    26    24    20   ar
    27     6     1   ar
    28    12     7    1
    29    13    14    1
@<TRIPOS>MOLECULE
*****
 27 29 0 0 0
SMALL
GASTEIGER

@<TRIPOS>ATOM
      1 C         140.6042  143.1443  165.3343 C.ar    1  UNL1        0.0621
      2 C         140.5969  142.6686  166.7569 C.ar    1  UNL1        0.0294
      3 C         141.8804  142.2624  167.4184 C.ar    1  UNL1        0.0519
      4 C         143.1711  142.3317  166.6574 C.ar    1  UNL1        0.0486
      5 C         143.1784  142.8074  165.2349 C.ar    1  UNL1        0.1293
      6 N         141.8950  143.2136  164.5733 N.ar    1  UNL1       -0.2351
      7 N         141.8731  141.7867  168.8410 N.pl3   1  UNL1       -0.3027
      8 C         140.9507  142.4213  169.8393 C.3     1  UNL1        0.1231
      9 C         140.9434  141.9457  171.2618 C.3     1  UNL1        0.1636
     10 O         141.8585  140.8354  171.6862 O.3     1  UNL1       -0.3501
     11 C         142.7809  140.2009  170.6879 C.3     1  UNL1        0.1636
     12 C         142.7882  140.6765  169.2653 C.3     1  UNL1        0.1231
     13 N         144.4692  142.8767  164.4739 N.pl3   1  UNL1       -0.3197
     14 H         145.0666  143.6509  164.5875 H       1  UNL1        0.1481
     15 C         144.8497  141.7666  163.5397 C.3     1  UNL1        0.0705
     16 C         145.2483  140.4285  164.0879 C.3     1  UNL1        0.0212
     17 C         144.8315  141.9945  162.0571 C.3     1  UNL1        0.0212
     18 C         139.3207  143.5506  164.6727 C.3     1  UNL1        0.0556
     19 C         138.1681  142.5922  164.6199 C.3     1  UNL1        0.0916
     20 C         139.0205  138.9919  163.4464 C.ar    1  UNL1        0.1377
     21 O         138.9114  140.4645  163.1826 O.2     1  UNL1       -0.4430
     22 C         138.4204  141.1249  164.4368 C.ar    1  UNL1        0.2053
     23 N         138.2261  140.0605  165.4757 N.ar    1  UNL1       -0.2168
     24 C         138.5969  138.7422  164.8636 C.ar    1  UNL1        0.0923
     25 C         138.5521  137.4085  165.5484 C.3     1  UNL1        0.0551
     26 C         139.2734  138.1698  160.9948 C.3     1  UNL1        0.0085
     27 C         139.4735  137.9516  162.4653 C.3     1  UNL1        0.0658
@<TRIPOS>BOND
     1    26    27    1
     2    27    20    1
     3    20    21   ar
     4    21    22   ar
     5    22    19    1
     6    19    18    1
     7    18     1    1
     8     1     2   ar
     9     2     3   ar
    10     3     7    1
    11     7     8    1
    12     8     9    1
    13     9    10    1
    14    10    11    1
    15    11    12    1
    16     3     4   ar
    17     4     5   ar
    18     5    13    1
    19    13    15    1
    20    15    16    1
    21    15    17    1
    22     5     6   ar
    23    22    23   ar
    24    23    24   ar
    25    24    25    1
    26    24    20   ar
    27     6     1   ar
    28    12     7    1
    29    13    14    1
