@<TRIPOS>MOLECULE
*****
 19 20 0 0 0
SMALL
GASTEIGER

@<TRIPOS>ATOM
      1 O         141.4561  141.3743  167.4045 O.3     1  UNL1       -0.4676
      2 C         141.2029  142.4157  166.3549 C.ar    1  UNL1        0.1410
      3 C         139.8534  143.0619  166.2497 C.ar    1  UNL1        0.0484
      4 C         139.6002  144.1031  165.2001 C.ar    1  UNL1        0.0614
      5 CL        138.2506  144.7494  165.0948 Cl      1  UNL1       -0.0821
      6 C         140.6966  144.4982  164.2557 C.ar    1  UNL1        0.0219
      7 C         142.0462  143.8520  164.3609 C.ar    1  UNL1        0.0723
      8 C         142.2993  142.8107  165.4105 C.ar    1  UNL1        0.0472
      9 C         143.1426  144.2471  163.4166 C.1     1  UNL1        0.1005
     10 N         144.2390  144.6422  162.4722 N.1     1  UNL1       -0.1908
     11 C         140.0453  141.4763  169.6725 C.2     1  UNL1        0.1032
     12 N         138.8492  140.7490  170.2113 N.2     1  UNL1       -0.1533
     13 N         138.4069  139.7554  169.1782 N.2     1  UNL1       -0.1533
     14 C         139.3296  139.8687  168.0010 C.2     1  UNL1        0.1032
     15 C         140.3422  140.9323  168.3065 C.3     1  UNL1        0.2405
     16 C         140.6206  143.9915  169.9777 C.3     1  UNL1        0.0065
     17 C         140.8102  142.5579  170.3763 C.3     1  UNL1        0.0472
     18 C         139.2531  139.0604  166.7398 C.3     1  UNL1        0.0472
     19 C         138.2343  139.3992  165.6923 C.3     1  UNL1        0.0065
@<TRIPOS>BOND
     1    16    17    1
     2    17    11    1
     3    11    12    2
     4    12    13    1
     5    13    14    2
     6    14    18    1
     7    18    19    1
     8    14    15    1
     9    15     1    1
    10     1     2    1
    11     2     3   ar
    12     3     4   ar
    13     4     5    1
    14     4     6   ar
    15     6     7   ar
    16     7     9    1
    17     9    10    3
    18     7     8   ar
    19    15    11    1
    20     8     2   ar
@<TRIPOS>MOLECULE
*****
 19 20 0 0 0
SMALL
GASTEIGER

@<TRIPOS>ATOM
      1 O         141.3802  141.2518  167.2813 O.3     1  UNL1       -0.4676
      2 C         141.1399  142.3433  166.2807 C.ar    1  UNL1        0.1410
      3 C         139.7957  143.0039  166.1997 C.ar    1  UNL1        0.0484
      4 C         139.5555  144.0953  165.1992 C.ar    1  UNL1        0.0614
      5 CL        138.2112  144.7559  165.1182 Cl      1  UNL1       -0.0821
      6 C         140.6595  144.5261  164.2797 C.ar    1  UNL1        0.0219
      7 C         142.0037  143.8655  164.3607 C.ar    1  UNL1        0.0723
      8 C         142.2440  142.7741  165.3612 C.ar    1  UNL1        0.0472
      9 C         143.1077  144.2964  163.4412 C.1     1  UNL1        0.1005
     10 N         144.2118  144.7272  162.5216 N.1     1  UNL1       -0.1908
     11 C         139.2329  139.8179  167.9723 C.2     1  UNL1        0.1032
     12 N         138.3546  139.7407  169.1859 N.2     1  UNL1       -0.1533
     13 N         138.8688  140.7258  170.1935 N.2     1  UNL1       -0.1533
     14 C         140.0648  141.4117  169.6027 C.2     1  UNL1        0.1032
     15 C         140.2898  140.8506  168.2299 C.3     1  UNL1        0.2405
     16 C         138.3088  139.5551  165.5584 C.3     1  UNL1        0.0065
     17 C         139.0808  139.0050  166.7209 C.3     1  UNL1        0.0472
     18 C         140.8907  142.4725  170.2679 C.3     1  UNL1        0.0472
     19 C         140.6590  143.9182  169.9416 C.3     1  UNL1        0.0065
@<TRIPOS>BOND
     1    16    17    1
     2    17    11    1
     3    11    12    2
     4    12    13    1
     5    13    14    2
     6    14    18    1
     7    18    19    1
     8    14    15    1
     9    15     1    1
    10     1     2    1
    11     2     3   ar
    12     3     4   ar
    13     4     5    1
    14     4     6   ar
    15     6     7   ar
    16     7     9    1
    17     9    10    3
    18     7     8   ar
    19    15    11    1
    20     8     2   ar
@<TRIPOS>MOLECULE
*****
 19 20 0 0 0
SMALL
GASTEIGER

@<TRIPOS>ATOM
      1 O         142.0914  141.7593  165.4789 O.3     1  UNL1       -0.4676
      2 C         141.9719  141.7017  166.9731 C.ar    1  UNL1        0.1410
      3 C         143.0897  142.2093  167.8350 C.ar    1  UNL1        0.0484
      4 C         142.9702  142.1516  169.3290 C.ar    1  UNL1        0.0614
      5 CL        144.0879  142.6592  170.1910 Cl      1  UNL1       -0.0821
      6 C         141.7329  141.5864  169.9612 C.ar    1  UNL1        0.0219
      7 C         140.6151  141.0788  169.0993 C.ar    1  UNL1        0.0723
      8 C         140.7346  141.1365  167.6052 C.ar    1  UNL1        0.0472
      9 C         139.3778  140.5136  169.7315 C.1     1  UNL1        0.1005
     10 N         138.1405  139.9484  170.3637 N.1     1  UNL1       -0.1908
     11 C         144.3412  142.6722  164.3607 C.2     1  UNL1        0.1032
     12 N         145.5656  142.0378  163.7707 N.2     1  UNL1       -0.1533
     13 N         145.4104  140.5492  163.8712 N.2     1  UNL1       -0.1533
     14 C         144.0901  140.2637  164.5233 C.2     1  UNL1        0.1032
     15 C         143.4293  141.5758  164.8259 C.3     1  UNL1        0.2405
     16 C         143.6047  144.9104  163.2661 C.3     1  UNL1        0.0065
     17 C         144.0753  144.1447  164.4670 C.3     1  UNL1        0.0472
     18 C         143.5292  138.9047  164.8206 C.3     1  UNL1        0.0472
     19 C         143.5363  138.3814  166.2264 C.3     1  UNL1        0.0065
@<TRIPOS>BOND
     1    16    17    1
     2    17    11    1
     3    11    12    2
     4    12    13    1
     5    13    14    2
     6    14    18    1
     7    18    19    1
     8    14    15    1
     9    15     1    1
    10     1     2    1
    11     2     3   ar
    12     3     4   ar
    13     4     5    1
    14     4     6   ar
    15     6     7   ar
    16     7     9    1
    17     9    10    3
    18     7     8   ar
    19    15    11    1
    20     8     2   ar
@<TRIPOS>MOLECULE
*****
 19 20 0 0 0
SMALL
GASTEIGER

@<TRIPOS>ATOM
      1 O         142.0739  141.7298  165.4865 O.3     1  UNL1       -0.4676
      2 C         141.9537  141.6784  166.9808 C.ar    1  UNL1        0.1410
      3 C         143.0704  142.1912  167.8411 C.ar    1  UNL1        0.0484
      4 C         142.9502  142.1398  169.3353 C.ar    1  UNL1        0.0614
      5 CL        144.0669  142.6525  170.1957 Cl      1  UNL1       -0.0821
      6 C         141.7134  141.5756  169.9693 C.ar    1  UNL1        0.0219
      7 C         140.5968  141.0628  169.1091 C.ar    1  UNL1        0.0723
      8 C         140.7169  141.1142  167.6148 C.ar    1  UNL1        0.0472
      9 C         139.3599  140.4986  169.7431 C.1     1  UNL1        0.1005
     10 N         138.1231  139.9344  170.3771 N.1     1  UNL1       -0.1908
     11 C         144.0851  140.2432  164.5431 C.2     1  UNL1        0.1032
     12 N         145.4032  140.5343  163.8890 N.2     1  UNL1       -0.1533
     13 N         145.5460  142.0233  163.7768 N.2     1  UNL1       -0.1533
     14 C         144.3163  142.6524  164.3616 C.2     1  UNL1        0.1032
     15 C         143.4133  141.5522  164.8352 C.3     1  UNL1        0.2405
     16 C         143.5499  138.3685  166.2603 C.3     1  UNL1        0.0065
     17 C         143.5353  138.8820  164.8511 C.3     1  UNL1        0.0472
     18 C         144.0383  144.1233  164.4561 C.3     1  UNL1        0.0472
     19 C         143.7439  144.9124  163.2148 C.3     1  UNL1        0.0065
@<TRIPOS>BOND
     1    16    17    1
     2    17    11    1
     3    11    12    2
     4    12    13    1
     5    13    14    2
     6    14    18    1
     7    18    19    1
     8    14    15    1
     9    15     1    1
    10     1     2    1
    11     2     3   ar
    12     3     4   ar
    13     4     5    1
    14     4     6   ar
    15     6     7   ar
    16     7     9    1
    17     9    10    3
    18     7     8   ar
    19    15    11    1
    20     8     2   ar
@<TRIPOS>MOLECULE
*****
 19 20 0 0 0
SMALL
GASTEIGER

@<TRIPOS>ATOM
      1 O         141.7360  141.8978  165.3660 O.3     1  UNL1       -0.4676
      2 C         141.7257  141.7567  166.8593 C.ar    1  UNL1        0.1410
      3 C         142.9258  142.1676  167.6598 C.ar    1  UNL1        0.0484
      4 C         142.9154  142.0265  169.1531 C.ar    1  UNL1        0.0614
      5 CL        144.1155  142.4375  169.9537 Cl      1  UNL1       -0.0821
      6 C         141.7049  141.4744  169.8459 C.ar    1  UNL1        0.0219
      7 C         140.5048  141.0634  169.0454 C.ar    1  UNL1        0.0723
      8 C         140.5152  141.2046  167.5521 C.ar    1  UNL1        0.0472
      9 C         139.2944  140.5113  169.7382 C.1     1  UNL1        0.1005
     10 N         138.0839  139.9592  170.4309 N.1     1  UNL1       -0.1908
     11 C         143.3030  143.8353  164.3986 C.2     1  UNL1        0.1032
     12 N         143.0671  145.1880  163.7950 N.2     1  UNL1       -0.1533
     13 N         141.5871  145.4303  163.7646 N.2     1  UNL1       -0.1533
     14 C         140.9083  144.2273  164.3494 C.2     1  UNL1        0.1032
     15 C         141.9688  143.2415  164.7412 C.3     1  UNL1        0.2405
     16 C         144.9322  141.8475  164.0187 C.3     1  UNL1        0.0065
     17 C         144.6386  143.1897  164.6206 C.3     1  UNL1        0.0472
     18 C         139.4289  144.0425  164.5135 C.3     1  UNL1        0.0472
     19 C         138.6633  144.9214  165.4577 C.3     1  UNL1        0.0065
@<TRIPOS>BOND
     1    16    17    1
     2    17    11    1
     3    11    12    2
     4    12    13    1
     5    13    14    2
     6    14    18    1
     7    18    19    1
     8    14    15    1
     9    15     1    1
    10     1     2    1
    11     2     3   ar
    12     3     4   ar
    13     4     5    1
    14     4     6   ar
    15     6     7   ar
    16     7     9    1
    17     9    10    3
    18     7     8   ar
    19    15    11    1
    20     8     2   ar
@<TRIPOS>MOLECULE
*****
 19 20 0 0 0
SMALL
GASTEIGER

@<TRIPOS>ATOM
      1 O         141.5155  141.9212  165.3124 O.3     1  UNL1       -0.4676
      2 C         141.5367  141.7668  166.8044 C.ar    1  UNL1        0.1410
      3 C         142.7505  142.1784  167.5837 C.ar    1  UNL1        0.0484
      4 C         142.7717  142.0240  169.0756 C.ar    1  UNL1        0.0614
      5 CL        143.9855  142.4356  169.8550 Cl      1  UNL1       -0.0821
      6 C         141.5792  141.4581  169.7881 C.ar    1  UNL1        0.0219
      7 C         140.3655  141.0465  169.0087 C.ar    1  UNL1        0.0723
      8 C         140.3443  141.2009  167.5169 C.ar    1  UNL1        0.0472
      9 C         139.1730  140.4805  169.7212 C.1     1  UNL1        0.1005
     10 N         137.9805  139.9145  170.4337 N.1     1  UNL1       -0.1908
     11 C         141.0606  144.3341  164.2560 C.2     1  UNL1        0.1032
     12 N         141.9215  145.4205  163.6830 N.2     1  UNL1       -0.1533
     13 N         143.3498  144.9683  163.7583 N.2     1  UNL1       -0.1533
     14 C         143.3715  143.6024  164.3779 C.2     1  UNL1        0.1032
     15 C         141.9567  143.2105  164.6855 C.3     1  UNL1        0.2405
     16 C         138.9272  144.8388  165.6501 C.3     1  UNL1        0.0065
     17 C         139.5659  144.3657  164.3780 C.3     1  UNL1        0.0472
     18 C         144.5935  142.7740  164.6433 C.3     1  UNL1        0.0472
     19 C         145.3981  142.2357  163.4975 C.3     1  UNL1        0.0065
@<TRIPOS>BOND
     1    16    17    1
     2    17    11    1
     3    11    12    2
     4    12    13    1
     5    13    14    2
     6    14    18    1
     7    18    19    1
     8    14    15    1
     9    15     1    1
    10     1     2    1
    11     2     3   ar
    12     3     4   ar
    13     4     5    1
    14     4     6   ar
    15     6     7   ar
    16     7     9    1
    17     9    10    3
    18     7     8   ar
    19    15    11    1
    20     8     2   ar
@<TRIPOS>MOLECULE
*****
 19 20 0 0 0
SMALL
GASTEIGER

@<TRIPOS>ATOM
      1 O         140.6367  141.0596  166.0309 O.3     1  UNL1       -0.4676
      2 C         141.9023  140.3982  165.5714 C.ar    1  UNL1        0.1410
      3 C         142.5349  140.8086  164.2748 C.ar    1  UNL1        0.0484
      4 C         143.8004  140.1472  163.8154 C.ar    1  UNL1        0.0614
      5 CL        144.4331  140.5575  162.5187 Cl      1  UNL1       -0.0821
      6 C         144.4332  139.0755  164.6526 C.ar    1  UNL1        0.0219
      7 C         143.8006  138.6651  165.9493 C.ar    1  UNL1        0.0723
      8 C         142.5351  139.3265  166.4087 C.ar    1  UNL1        0.0472
      9 C         144.4334  137.5934  166.7865 C.1     1  UNL1        0.1005
     10 N         145.0662  136.5217  167.6237 N.1     1  UNL1       -0.1908
     11 C         139.6999  140.6838  168.5060 C.2     1  UNL1        0.1032
     12 N         138.6891  139.7678  169.1298 N.2     1  UNL1       -0.1533
     13 N         138.1225  138.8971  168.0477 N.2     1  UNL1       -0.1533
     14 C         138.7831  139.2751  166.7551 C.2     1  UNL1        0.1032
     15 C         139.7580  140.3793  167.0384 C.3     1  UNL1        0.2405
     16 C         139.8945  142.5166  170.3371 C.3     1  UNL1        0.0065
     17 C         140.5103  141.7220  169.2238 C.3     1  UNL1        0.0472
     18 C         138.5157  138.6573  165.4147 C.3     1  UNL1        0.0472
     19 C         139.4574  137.6292  164.8613 C.3     1  UNL1        0.0065
@<TRIPOS>BOND
     1    16    17    1
     2    17    11    1
     3    11    12    2
     4    12    13    1
     5    13    14    2
     6    14    18    1
     7    18    19    1
     8    14    15    1
     9    15     1    1
    10     1     2    1
    11     2     3   ar
    12     3     4   ar
    13     4     5    1
    14     4     6   ar
    15     6     7   ar
    16     7     9    1
    17     9    10    3
    18     7     8   ar
    19    15    11    1
    20     8     2   ar
@<TRIPOS>MOLECULE
*****
 19 20 0 0 0
SMALL
GASTEIGER

@<TRIPOS>ATOM
      1 O         140.9863  141.6081  165.1444 O.3     1  UNL1       -0.4676
      2 C         141.1106  141.5247  166.6370 C.ar    1  UNL1        0.1410
      3 C         142.3643  141.9957  167.3126 C.ar    1  UNL1        0.0484
      4 C         142.4886  141.9123  168.8051 C.ar    1  UNL1        0.0614
      5 CL        143.7423  142.3833  169.4807 Cl      1  UNL1       -0.0821
      6 C         141.3593  141.3581  169.6220 C.ar    1  UNL1        0.0219
      7 C         140.1056  140.8871  168.9464 C.ar    1  UNL1        0.0723
      8 C         139.9813  140.9705  167.4539 C.ar    1  UNL1        0.0472
      9 C         138.9762  140.3328  169.7633 C.1     1  UNL1        0.1005
     10 N         137.8469  139.7785  170.5802 N.1     1  UNL1       -0.1908
     11 C         138.8117  142.9262  164.3204 C.2     1  UNL1        0.1032
     12 N         137.5301  142.5397  163.6436 N.2     1  UNL1       -0.1533
     13 N         137.5564  141.0577  163.4129 N.2     1  UNL1       -0.1533
     14 C         138.8543  140.5284  163.9470 C.2     1  UNL1        0.1032
     15 C         139.6302  141.6832  164.5079 C.3     1  UNL1        0.2405
     16 C         138.4283  145.0247  165.8033 C.3     1  UNL1        0.0065
     17 C         139.2058  144.3124  164.7366 C.3     1  UNL1        0.0472
     18 C         139.2984  139.0958  163.9242 C.3     1  UNL1        0.0472
     19 C         138.9115  138.1728  165.0415 C.3     1  UNL1        0.0065
@<TRIPOS>BOND
     1    16    17    1
     2    17    11    1
     3    11    12    2
     4    12    13    1
     5    13    14    2
     6    14    18    1
     7    18    19    1
     8    14    15    1
     9    15     1    1
    10     1     2    1
    11     2     3   ar
    12     3     4   ar
    13     4     5    1
    14     4     6   ar
    15     6     7   ar
    16     7     9    1
    17     9    10    3
    18     7     8   ar
    19    15    11    1
    20     8     2   ar
@<TRIPOS>MOLECULE
*****
 19 20 0 0 0
SMALL
GASTEIGER

@<TRIPOS>ATOM
      1 O         141.1573  142.5597  165.8208 O.3     1  UNL1       -0.4676
      2 C         140.4718  141.3198  165.3280 C.ar    1  UNL1        0.1410
      3 C         140.7284  140.8239  163.9358 C.ar    1  UNL1        0.0484
      4 C         140.0428  139.5841  163.4431 C.ar    1  UNL1        0.0614
      5 CL        140.2994  139.0881  162.0509 Cl      1  UNL1       -0.0821
      6 C         139.1007  138.8401  164.3426 C.ar    1  UNL1        0.0219
      7 C         138.8442  139.3360  165.7347 C.ar    1  UNL1        0.0723
      8 C         139.5297  140.5759  166.2275 C.ar    1  UNL1        0.0472
      9 C         137.9021  138.5921  166.6342 C.1     1  UNL1        0.1005
     10 N         136.9600  137.8482  167.5337 N.1     1  UNL1       -0.1908
     11 C         140.7420  144.5643  164.1020 C.2     1  UNL1        0.1032
     12 N         141.6203  145.4188  163.2368 N.2     1  UNL1       -0.1533
     13 N         143.0404  144.9824  163.4439 N.2     1  UNL1       -0.1533
     14 C         143.0398  143.8583  164.4371 C.2     1  UNL1        0.1032
     15 C         141.6194  143.5999  164.8438 C.3     1  UNL1        0.2405
     16 C         138.6068  144.9520  165.5304 C.3     1  UNL1        0.0065
     17 C         139.2487  144.6579  164.2070 C.3     1  UNL1        0.0472
     18 C         144.2477  143.1219  164.9359 C.3     1  UNL1        0.0472
     19 C         144.4661  141.6894  164.5479 C.3     1  UNL1        0.0065
@<TRIPOS>BOND
     1    16    17    1
     2    17    11    1
     3    11    12    2
     4    12    13    1
     5    13    14    2
     6    14    18    1
     7    18    19    1
     8    14    15    1
     9    15     1    1
    10     1     2    1
    11     2     3   ar
    12     3     4   ar
    13     4     5    1
    14     4     6   ar
    15     6     7   ar
    16     7     9    1
    17     9    10    3
    18     7     8   ar
    19    15    11    1
    20     8     2   ar
