@<TRIPOS>MOLECULE
*****
 37 40 0 0 0
SMALL
GASTEIGER

@<TRIPOS>ATOM
      1 C         139.7731  137.6972  162.8561 C.ar    1  UNL1        0.0505
      2 C         141.2524  137.4497  162.8813 C.ar    1  UNL1        0.0159
      3 C         142.1037  137.8745  161.7217 C.ar    1  UNL1        0.0158
      4 C         141.4759  138.5467  160.5368 C.ar    1  UNL1        0.0480
      5 C         139.9967  138.7942  160.5116 C.ar    1  UNL1        0.0158
      6 C         139.1453  138.3694  161.6712 C.ar    1  UNL1        0.0159
      7 N         142.3274  138.9714  159.3772 N.pl3   1  UNL1       -0.3045
      8 C         143.3171  140.0864  159.5421 C.3     1  UNL1        0.1099
      9 C         144.1684  140.5111  158.3825 C.3     1  UNL1        0.1168
     10 N         144.0301  139.8209  157.0580 N.3     1  UNL1       -0.1559
     11 C         143.0404  138.7059  156.8931 C.3     1  UNL1        0.1168
     12 C         142.1890  138.2812  158.0527 C.3     1  UNL1        0.1099
     13 S         144.8816  140.2456  155.8983 S.O2    1  UNL1        0.0453
     14 O         145.4910  138.8761  155.8443 O.2     1  UNL1       -0.1572
     15 O         144.2721  141.6151  155.9524 O.2     1  UNL1       -0.1572
     16 C         145.7330  140.6703  154.7388 C.3     1  UNL1        0.1863
     17 C         146.4695  141.9761  154.7876 C.3     1  UNL1        0.0995
     18 N         147.6490  142.1382  155.6999 N.3     1  UNL1       -0.2688
     19 C         147.5055  142.9020  156.9829 C.3     1  UNL1        0.0897
     20 C         148.9722  141.5366  155.3292 C.3     1  UNL1        0.0897
     21 N         138.9217  137.2724  164.0157 N.pl3   1  UNL1       -0.2825
     22 H         138.3710  136.4590  163.9501 H       1  UNL1        0.1551
     23 C         140.0284  139.8407  166.8315 C.ar    1  UNL1        0.1030
     24 C         138.8849  139.7160  167.7942 C.ar    1  UNL1        0.0414
     25 C         137.7537  138.7768  167.4974 C.ar    1  UNL1        0.1034
     26 N         137.7660  137.9623  166.2379 N.ar    1  UNL1       -0.2120
     27 C         138.9095  138.0869  165.2752 C.ar    1  UNL1        0.2207
     28 N         140.0407  139.0262  165.5720 N.ar    1  UNL1       -0.2120
     29 C         143.8748  142.4296  169.3582 C.3     1  UNL1        0.0718
     30 C         142.9277  141.9699  168.2897 C.ar    1  UNL1        0.1208
     31 N         142.8735  142.4806  166.8803 N.ar    1  UNL1       -0.2293
     32 C         141.7808  141.7451  166.1626 C.ar    1  UNL1        0.1188
     33 C         141.1597  140.7799  167.1283 C.ar    1  UNL1        0.0981
     34 N         141.8685  140.9189  168.4430 N.ar    1  UNL1       -0.3155
     35 C         141.5705  140.1431  169.6917 C.3     1  UNL1        0.0868
     36 C         142.2636  138.8375  169.9469 C.3     1  UNL1        0.0245
     37 C         140.5794  140.6729  170.6852 C.3     1  UNL1        0.0245
@<TRIPOS>BOND
     1    29    30    1
     2    30    31   ar
     3    31    32   ar
     4    32    33   ar
     5    33    23    1
     6    23    24   ar
     7    24    25   ar
     8    25    26   ar
     9    26    27   ar
    10    27    21    1
    11    21     1    1
    12     1     2   ar
    13     2     3   ar
    14     3     4   ar
    15     4     7    1
    16     7     8    1
    17     8     9    1
    18     9    10    1
    19    10    13    1
    20    13    14    2
    21    13    15    2
    22    13    16    1
    23    16    17    1
    24    17    18    1
    25    18    19    1
    26    18    20    1
    27    10    11    1
    28    11    12    1
    29     4     5   ar
    30     5     6   ar
    31    27    28   ar
    32    33    34   ar
    33    34    35    1
    34    35    36    1
    35    35    37    1
    36    34    30   ar
    37    28    23   ar
    38     6     1   ar
    39    12     7    1
    40    21    22    1
@<TRIPOS>MOLECULE
*****
 37 40 0 0 0
SMALL
GASTEIGER

@<TRIPOS>ATOM
      1 C         138.6980  141.9492  160.4362 C.ar    1  UNL1        0.0505
      2 C         139.8614  142.2334  159.5329 C.ar    1  UNL1        0.0159
      3 C         140.5003  141.1183  158.7594 C.ar    1  UNL1        0.0158
      4 C         139.9759  139.7189  158.8892 C.ar    1  UNL1        0.0480
      5 C         138.8126  139.4347  159.7924 C.ar    1  UNL1        0.0158
      6 C         138.1736  140.5498  160.5659 C.ar    1  UNL1        0.0159
      7 N         140.6149  138.6038  158.1157 N.pl3   1  UNL1       -0.3045
      8 C         139.8454  137.9034  157.0353 C.3     1  UNL1        0.1099
      9 C         140.4844  136.7883  156.2619 C.3     1  UNL1        0.1168
     10 N         141.8929  136.3736  156.5689 N.3     1  UNL1       -0.1559
     11 C         142.6624  137.0740  157.6493 C.3     1  UNL1        0.1168
     12 C         142.0234  138.1891  158.4227 C.3     1  UNL1        0.1099
     13 S         142.5319  135.2585  155.7954 S.O2    1  UNL1        0.0453
     14 O         141.1813  134.8198  155.3122 O.2     1  UNL1       -0.1572
     15 O         143.8824  135.6972  156.2785 O.2     1  UNL1       -0.1572
     16 C         143.1708  134.1434  155.0219 C.3     1  UNL1        0.1863
     17 C         142.9969  132.7230  155.4716 C.3     1  UNL1        0.0995
     18 N         144.1307  132.0039  156.1404 N.3     1  UNL1       -0.2688
     19 C         144.6676  132.5033  157.4490 C.3     1  UNL1        0.0897
     20 C         144.7276  130.7854  155.5008 C.3     1  UNL1        0.0897
     21 N         138.0591  143.0643  161.2096 N.pl3   1  UNL1       -0.2825
     22 H         137.3773  143.6318  160.7827 H       1  UNL1        0.1551
     23 C         140.0221  142.8268  164.6506 C.ar    1  UNL1        0.1030
     24 C         139.2589  143.8156  165.4811 C.ar    1  UNL1        0.0414
     25 C         138.0958  144.5540  164.8878 C.ar    1  UNL1        0.1034
     26 N         137.6959  144.3035  163.4640 N.ar    1  UNL1       -0.2120
     27 C         138.4590  143.3147  162.6334 C.ar    1  UNL1        0.2207
     28 N         139.6221  142.5764  163.2267 N.ar    1  UNL1       -0.2120
     29 C         142.9268  139.1222  167.0421 C.3     1  UNL1        0.0718
     30 C         142.5204  140.3856  166.3431 C.ar    1  UNL1        0.1208
     31 N         143.4298  141.5188  165.9704 N.ar    1  UNL1       -0.2293
     32 C         142.6046  142.5712  165.2911 C.ar    1  UNL1        0.1188
     33 C         141.1852  142.0884  165.2438 C.ar    1  UNL1        0.0981
     34 N         141.1331  140.7377  165.8940 N.ar    1  UNL1       -0.3155
     35 C         139.9088  139.8881  166.0652 C.3     1  UNL1        0.0868
     36 C         139.2562  139.7754  167.4109 C.3     1  UNL1        0.0245
     37 C         139.3372  139.1512  164.8903 C.3     1  UNL1        0.0245
@<TRIPOS>BOND
     1    29    30    1
     2    30    31   ar
     3    31    32   ar
     4    32    33   ar
     5    33    23    1
     6    23    24   ar
     7    24    25   ar
     8    25    26   ar
     9    26    27   ar
    10    27    21    1
    11    21     1    1
    12     1     2   ar
    13     2     3   ar
    14     3     4   ar
    15     4     7    1
    16     7     8    1
    17     8     9    1
    18     9    10    1
    19    10    13    1
    20    13    14    2
    21    13    15    2
    22    13    16    1
    23    16    17    1
    24    17    18    1
    25    18    19    1
    26    18    20    1
    27    10    11    1
    28    11    12    1
    29     4     5   ar
    30     5     6   ar
    31    27    28   ar
    32    33    34   ar
    33    34    35    1
    34    35    36    1
    35    35    37    1
    36    34    30   ar
    37    28    23   ar
    38     6     1   ar
    39    12     7    1
    40    21    22    1
@<TRIPOS>MOLECULE
*****
 37 40 0 0 0
SMALL
GASTEIGER

@<TRIPOS>ATOM
      1 C         143.4486  140.1778  159.5069 C.ar    1  UNL1        0.0505
      2 C         143.1479  138.8694  160.1762 C.ar    1  UNL1        0.0159
      3 C         142.7988  137.6671  159.3500 C.ar    1  UNL1        0.0158
      4 C         142.7503  137.7732  157.8545 C.ar    1  UNL1        0.0480
      5 C         143.0510  139.0814  157.1852 C.ar    1  UNL1        0.0158
      6 C         143.4001  140.2838  158.0114 C.ar    1  UNL1        0.0159
      7 N         142.4012  136.5708  157.0283 N.pl3   1  UNL1       -0.3045
      8 C         143.1324  135.2782  157.2387 C.3     1  UNL1        0.1099
      9 C         142.7833  134.0759  156.4125 C.3     1  UNL1        0.1168
     10 N         141.7028  134.1663  155.3759 N.3     1  UNL1       -0.1559
     11 C         140.9716  135.4589  155.1655 C.3     1  UNL1        0.1168
     12 C         141.3207  136.6612  155.9917 C.3     1  UNL1        0.1099
     13 S         141.3537  132.9640  154.5497 S.O2    1  UNL1        0.0453
     14 O         141.2656  132.1335  155.7957 O.2     1  UNL1       -0.1572
     15 O         141.4418  133.7945  153.3038 O.2     1  UNL1       -0.1572
     16 C         141.0045  131.7617  153.7236 C.3     1  UNL1        0.1863
     17 C         141.8112  130.5036  153.8519 C.3     1  UNL1        0.0995
     18 N         143.2766  130.5163  153.5319 N.3     1  UNL1       -0.2688
     19 C         143.7320  130.5861  152.1044 C.3     1  UNL1        0.0897
     20 C         144.2867  130.4592  154.6394 C.3     1  UNL1        0.0897
     21 N         143.7977  141.3800  160.3331 N.pl3   1  UNL1       -0.2825
     22 H         143.9565  142.2480  159.8966 H       1  UNL1        0.1551
     23 C         142.7716  141.0110  164.1489 C.ar    1  UNL1        0.1030
     24 C         144.1194  141.0193  164.8071 C.ar    1  UNL1        0.0414
     25 C         145.3601  141.1479  163.9738 C.ar    1  UNL1        0.1034
     26 N         145.2528  141.2681  162.4825 N.ar    1  UNL1       -0.2120
     27 C         143.9050  141.2598  161.8244 C.ar    1  UNL1        0.2207
     28 N         142.6644  141.1312  162.6576 N.ar    1  UNL1       -0.2120
     29 C         138.2758  139.1612  166.2099 C.3     1  UNL1        0.0718
     30 C         139.4644  140.0322  165.9294 C.ar    1  UNL1        0.1208
     31 N         139.7790  141.3370  166.5992 N.ar    1  UNL1       -0.2293
     32 C         141.0561  141.8624  166.0137 C.ar    1  UNL1        0.1188
     33 C         141.5309  140.8824  164.9822 C.ar    1  UNL1        0.0981
     34 N         140.5471  139.7512  164.9301 N.ar    1  UNL1       -0.3155
     35 C         140.6313  138.5500  164.0357 C.3     1  UNL1        0.0868
     36 C         141.2833  137.2922  164.5284 C.3     1  UNL1        0.0245
     37 C         140.0634  138.6066  162.6484 C.3     1  UNL1        0.0245
@<TRIPOS>BOND
     1    29    30    1
     2    30    31   ar
     3    31    32   ar
     4    32    33   ar
     5    33    23    1
     6    23    24   ar
     7    24    25   ar
     8    25    26   ar
     9    26    27   ar
    10    27    21    1
    11    21     1    1
    12     1     2   ar
    13     2     3   ar
    14     3     4   ar
    15     4     7    1
    16     7     8    1
    17     8     9    1
    18     9    10    1
    19    10    13    1
    20    13    14    2
    21    13    15    2
    22    13    16    1
    23    16    17    1
    24    17    18    1
    25    18    19    1
    26    18    20    1
    27    10    11    1
    28    11    12    1
    29     4     5   ar
    30     5     6   ar
    31    27    28   ar
    32    33    34   ar
    33    34    35    1
    34    35    36    1
    35    35    37    1
    36    34    30   ar
    37    28    23   ar
    38     6     1   ar
    39    12     7    1
    40    21    22    1
@<TRIPOS>MOLECULE
*****
 37 40 0 0 0
SMALL
GASTEIGER

@<TRIPOS>ATOM
      1 C         143.6850  140.3647  159.2107 C.ar    1  UNL1        0.0505
      2 C         143.3216  139.1280  159.9778 C.ar    1  UNL1        0.0159
      3 C         142.9340  137.8778  159.2452 C.ar    1  UNL1        0.0158
      4 C         142.9099  137.8643  157.7455 C.ar    1  UNL1        0.0480
      5 C         143.2733  139.1010  156.9784 C.ar    1  UNL1        0.0158
      6 C         143.6609  140.3512  157.7110 C.ar    1  UNL1        0.0159
      7 N         142.5222  136.6141  157.0128 N.pl3   1  UNL1       -0.3045
      8 C         141.4038  136.6463  156.0138 C.3     1  UNL1        0.1099
      9 C         141.0163  135.3961  155.2813 C.3     1  UNL1        0.1168
     10 N         141.7471  134.1136  155.5477 N.3     1  UNL1       -0.1559
     11 C         142.8656  134.0813  156.5467 C.3     1  UNL1        0.1168
     12 C         143.2531  135.3315  157.2792 C.3     1  UNL1        0.1099
     13 S         141.3595  132.8634  154.8150 S.O2    1  UNL1        0.0453
     14 O         140.9990  133.6811  153.6104 O.2     1  UNL1       -0.1572
     15 O         141.7201  132.0456  156.0197 O.2     1  UNL1       -0.1572
     16 C         140.9719  131.6132  154.0824 C.3     1  UNL1        0.1863
     17 C         139.9368  130.6949  154.6614 C.3     1  UNL1        0.0995
     18 N         140.0918  129.2092  154.5253 N.3     1  UNL1       -0.2688
     19 C         139.4342  128.2928  155.5141 C.3     1  UNL1        0.0897
     20 C         140.9045  128.6398  153.4003 C.3     1  UNL1        0.0897
     21 N         144.0726  141.6149  159.9434 N.pl3   1  UNL1       -0.2825
     22 H         144.2742  142.4374  159.4412 H       1  UNL1        0.1551
     23 C         142.9841  141.4699  163.7570 C.ar    1  UNL1        0.1030
     24 C         144.3142  141.6063  164.4369 C.ar    1  UNL1        0.0414
     25 C         145.5637  141.7456  163.6189 C.ar    1  UNL1        0.1034
     26 N         145.4832  141.7485  162.1211 N.ar    1  UNL1       -0.2120
     27 C         144.1531  141.6121  161.4412 C.ar    1  UNL1        0.2207
     28 N         142.9036  141.4728  162.2592 N.ar    1  UNL1       -0.2120
     29 C         139.1036  139.4118  166.6874 C.3     1  UNL1        0.0718
     30 C         139.9508  140.3846  165.9220 C.ar    1  UNL1        0.1208
     31 N         139.6722  141.8480  165.7455 N.ar    1  UNL1       -0.2293
     32 C         140.7746  142.4326  164.9131 C.ar    1  UNL1        0.1188
     33 C         141.7345  141.3306  164.5750 C.ar    1  UNL1        0.0981
     34 N         141.2253  140.0649  165.1986 N.ar    1  UNL1       -0.3155
     35 C         141.8764  138.7162  165.1136 C.3     1  UNL1        0.0868
     36 C         143.0737  138.4065  165.9624 C.3     1  UNL1        0.0245
     37 C         141.3301  137.6772  164.1797 C.3     1  UNL1        0.0245
@<TRIPOS>BOND
     1    29    30    1
     2    30    31   ar
     3    31    32   ar
     4    32    33   ar
     5    33    23    1
     6    23    24   ar
     7    24    25   ar
     8    25    26   ar
     9    26    27   ar
    10    27    21    1
    11    21     1    1
    12     1     2   ar
    13     2     3   ar
    14     3     4   ar
    15     4     7    1
    16     7     8    1
    17     8     9    1
    18     9    10    1
    19    10    13    1
    20    13    14    2
    21    13    15    2
    22    13    16    1
    23    16    17    1
    24    17    18    1
    25    18    19    1
    26    18    20    1
    27    10    11    1
    28    11    12    1
    29     4     5   ar
    30     5     6   ar
    31    27    28   ar
    32    33    34   ar
    33    34    35    1
    34    35    36    1
    35    35    37    1
    36    34    30   ar
    37    28    23   ar
    38     6     1   ar
    39    12     7    1
    40    21    22    1
@<TRIPOS>MOLECULE
*****
 37 40 0 0 0
SMALL
GASTEIGER

@<TRIPOS>ATOM
      1 C         139.4147  139.9905  159.9597 C.ar    1  UNL1        0.0505
      2 C         140.3179  140.0802  158.7655 C.ar    1  UNL1        0.0159
      3 C         140.3532  141.3349  157.9443 C.ar    1  UNL1        0.0158
      4 C         139.4853  142.5001  158.3174 C.ar    1  UNL1        0.0480
      5 C         138.5821  142.4104  159.5116 C.ar    1  UNL1        0.0158
      6 C         138.5468  141.1556  160.3328 C.ar    1  UNL1        0.0159
      7 N         139.5205  143.7549  157.4962 N.pl3   1  UNL1       -0.3045
      8 C         138.7779  143.8205  156.1947 C.3     1  UNL1        0.1099
      9 C         138.8132  145.0753  155.3735 C.3     1  UNL1        0.1168
     10 N         139.5912  146.2644  155.8540 N.3     1  UNL1       -0.1559
     11 C         140.3338  146.1987  157.1556 C.3     1  UNL1        0.1168
     12 C         140.2985  144.9440  157.9767 C.3     1  UNL1        0.1099
     13 S         139.6264  147.5192  155.0328 S.O2    1  UNL1        0.0453
     14 O         138.7437  148.2005  156.0360 O.2     1  UNL1       -0.1572
     15 O         140.5092  146.8379  154.0296 O.2     1  UNL1       -0.1572
     16 C         139.6617  148.7740  154.2117 C.3     1  UNL1        0.1863
     17 C         139.4090  150.1024  154.8608 C.3     1  UNL1        0.0995
     18 N         139.0781  151.2982  154.0179 N.3     1  UNL1       -0.2688
     19 C         139.2980  151.2544  152.5347 C.3     1  UNL1        0.0897
     20 C         138.5272  152.5379  154.6581 C.3     1  UNL1        0.0897
     21 N         139.3795  138.7357  160.7809 N.pl3   1  UNL1       -0.2825
     22 H         138.7326  138.0252  160.5666 H       1  UNL1        0.1551
     23 C         142.2987  139.4519  163.3723 C.ar    1  UNL1        0.1030
     24 C         142.2306  138.2189  164.2238 C.ar    1  UNL1        0.0414
     25 C         141.2122  137.1582  163.9277 C.ar    1  UNL1        0.1034
     26 N         140.2619  137.3305  162.7800 N.ar    1  UNL1       -0.2120
     27 C         140.3299  138.5635  161.9285 C.ar    1  UNL1        0.2207
     28 N         141.3483  139.6242  162.2246 N.ar    1  UNL1       -0.2120
     29 C         144.7105  143.6489  165.4815 C.3     1  UNL1        0.0718
     30 C         144.4257  142.4418  164.6379 C.ar    1  UNL1        0.1208
     31 N         145.3429  141.8481  163.6100 N.ar    1  UNL1       -0.2293
     32 C         144.6577  140.6558  163.0109 C.ar    1  UNL1        0.1188
     33 C         143.3171  140.5127  163.6684 C.ar    1  UNL1        0.0981
     34 N         143.1737  141.6164  164.6739 N.ar    1  UNL1       -0.3155
     35 C         141.9868  141.8533  165.5599 C.3     1  UNL1        0.0868
     36 C         140.7777  142.5591  165.0214 C.3     1  UNL1        0.0245
     37 C         142.0089  141.3844  166.9846 C.3     1  UNL1        0.0245
@<TRIPOS>BOND
     1    29    30    1
     2    30    31   ar
     3    31    32   ar
     4    32    33   ar
     5    33    23    1
     6    23    24   ar
     7    24    25   ar
     8    25    26   ar
     9    26    27   ar
    10    27    21    1
    11    21     1    1
    12     1     2   ar
    13     2     3   ar
    14     3     4   ar
    15     4     7    1
    16     7     8    1
    17     8     9    1
    18     9    10    1
    19    10    13    1
    20    13    14    2
    21    13    15    2
    22    13    16    1
    23    16    17    1
    24    17    18    1
    25    18    19    1
    26    18    20    1
    27    10    11    1
    28    11    12    1
    29     4     5   ar
    30     5     6   ar
    31    27    28   ar
    32    33    34   ar
    33    34    35    1
    34    35    36    1
    35    35    37    1
    36    34    30   ar
    37    28    23   ar
    38     6     1   ar
    39    12     7    1
    40    21    22    1
@<TRIPOS>MOLECULE
*****
 37 40 0 0 0
SMALL
GASTEIGER

@<TRIPOS>ATOM
      1 C         141.0582  138.4315  159.2467 C.ar    1  UNL1        0.0505
      2 C         142.4002  138.6111  159.8924 C.ar    1  UNL1        0.0159
      3 C         142.4964  138.8369  161.3721 C.ar    1  UNL1        0.0158
      4 C         141.2506  138.8832  162.2063 C.ar    1  UNL1        0.0480
      5 C         139.9086  138.7036  161.5607 C.ar    1  UNL1        0.0158
      6 C         139.8124  138.4777  160.0809 C.ar    1  UNL1        0.0159
      7 N         141.3468  139.1091  163.6861 N.pl3   1  UNL1       -0.3045
      8 C         140.1106  139.4087  164.4810 C.3     1  UNL1        0.1099
      9 C         140.2069  139.6345  165.9608 C.3     1  UNL1        0.1168
     10 N         141.5394  139.5608  166.6456 N.3     1  UNL1       -0.1559
     11 C         142.7756  139.2612  165.8507 C.3     1  UNL1        0.1168
     12 C         142.6793  139.0353  164.3709 C.3     1  UNL1        0.1099
     13 S         141.6356  139.7866  168.1254 S.O2    1  UNL1        0.0453
     14 O         140.2006  140.2224  168.1522 O.2     1  UNL1       -0.1572
     15 O         143.0706  139.3508  168.0987 O.2     1  UNL1       -0.1572
     16 C         141.7318  140.0125  169.6052 C.3     1  UNL1        0.1863
     17 C         140.9645  141.1317  170.2445 C.3     1  UNL1        0.0995
     18 N         141.4630  142.5420  170.1336 N.3     1  UNL1       -0.2688
     19 C         142.9187  142.8411  170.3369 C.3     1  UNL1        0.0897
     20 C         140.5057  143.6533  169.8193 C.3     1  UNL1        0.0897
     21 N         140.9620  138.2056  157.7670 N.pl3   1  UNL1       -0.2825
     22 H         140.1748  138.5263  157.2702 H       1  UNL1        0.1551
     23 C         143.4139  135.3197  156.5797 C.ar    1  UNL1        0.1030
     24 C         144.2714  136.0622  155.5982 C.ar    1  UNL1        0.0414
     25 C         144.0258  137.5191  155.3397 C.ar    1  UNL1        0.1034
     26 N         142.9226  138.2336  156.0626 N.ar    1  UNL1       -0.2120
     27 C         142.0651  137.4911  157.0441 C.ar    1  UNL1        0.2207
     28 N         142.3108  136.0342  157.3026 N.ar    1  UNL1       -0.2120
     29 C         143.2155  130.0546  156.2329 C.3     1  UNL1        0.0718
     30 C         143.5683  131.4426  156.6789 C.ar    1  UNL1        0.1208
     31 N         144.5067  131.7987  157.7938 N.ar    1  UNL1       -0.2293
     32 C         144.5630  133.2944  157.8923 C.ar    1  UNL1        0.1188
     33 C         143.6595  133.8627  156.8383 C.ar    1  UNL1        0.0981
     34 N         143.0448  132.7182  156.0885 N.ar    1  UNL1       -0.3155
     35 C         142.0765  132.8298  154.9483 C.3     1  UNL1        0.0868
     36 C         142.5105  133.4504  153.6536 C.3     1  UNL1        0.0245
     37 C         140.6740  132.3205  155.1030 C.3     1  UNL1        0.0245
@<TRIPOS>BOND
     1    29    30    1
     2    30    31   ar
     3    31    32   ar
     4    32    33   ar
     5    33    23    1
     6    23    24   ar
     7    24    25   ar
     8    25    26   ar
     9    26    27   ar
    10    27    21    1
    11    21     1    1
    12     1     2   ar
    13     2     3   ar
    14     3     4   ar
    15     4     7    1
    16     7     8    1
    17     8     9    1
    18     9    10    1
    19    10    13    1
    20    13    14    2
    21    13    15    2
    22    13    16    1
    23    16    17    1
    24    17    18    1
    25    18    19    1
    26    18    20    1
    27    10    11    1
    28    11    12    1
    29     4     5   ar
    30     5     6   ar
    31    27    28   ar
    32    33    34   ar
    33    34    35    1
    34    35    36    1
    35    35    37    1
    36    34    30   ar
    37    28    23   ar
    38     6     1   ar
    39    12     7    1
    40    21    22    1
@<TRIPOS>MOLECULE
*****
 37 40 0 0 0
SMALL
GASTEIGER

@<TRIPOS>ATOM
      1 C         139.5902  142.0583  158.8298 C.ar    1  UNL1        0.0505
      2 C         140.8497  142.0246  158.0159 C.ar    1  UNL1        0.0159
      3 C         141.3524  140.7231  157.4654 C.ar    1  UNL1        0.0158
      4 C         140.5956  139.4550  157.7287 C.ar    1  UNL1        0.0480
      5 C         139.3361  139.4886  158.5426 C.ar    1  UNL1        0.0158
      6 C         138.8333  140.7902  159.0932 C.ar    1  UNL1        0.0159
      7 N         141.0983  138.1534  157.1782 N.pl3   1  UNL1       -0.3045
      8 C         140.2895  137.4081  156.1582 C.3     1  UNL1        0.1099
      9 C         140.7923  136.1065  155.6077 C.3     1  UNL1        0.1168
     10 N         142.1039  135.5503  156.0771 N.3     1  UNL1       -0.1559
     11 C         142.9127  136.2956  157.0970 C.3     1  UNL1        0.1168
     12 C         142.4099  137.5971  157.6476 C.3     1  UNL1        0.1099
     13 S         142.6066  134.2486  155.5265 S.O2    1  UNL1        0.0453
     14 O         141.1965  133.7477  155.4234 O.2     1  UNL1       -0.1572
     15 O         144.0167  134.7496  155.6297 O.2     1  UNL1       -0.1572
     16 C         143.1093  132.9471  154.9760 C.3     1  UNL1        0.1863
     17 C         143.0247  131.6996  155.8046 C.3     1  UNL1        0.0995
     18 N         144.2737  131.0816  156.3594 N.3     1  UNL1       -0.2688
     19 C         144.7821  129.7861  155.7996 C.3     1  UNL1        0.0897
     20 C         145.0145  131.7590  157.4741 C.3     1  UNL1        0.0897
     21 N         139.0875  143.3599  159.3804 N.pl3   1  UNL1       -0.2825
     22 H         138.3080  143.7996  158.9701 H       1  UNL1        0.1551
     23 C         141.3938  143.8130  162.5781 C.ar    1  UNL1        0.1030
     24 C         141.1420  145.2545  162.9073 C.ar    1  UNL1        0.0414
     25 C         140.2054  146.0646  162.0608 C.ar    1  UNL1        0.1034
     26 N         139.5205  145.4330  160.8852 N.ar    1  UNL1       -0.2120
     27 C         139.7723  143.9914  160.5560 C.ar    1  UNL1        0.2207
     28 N         140.7090  143.1814  161.4025 N.ar    1  UNL1       -0.2120
     29 C         145.1586  140.4234  164.0675 C.3     1  UNL1        0.0718
     30 C         144.0610  141.4449  164.1092 C.ar    1  UNL1        0.1208
     31 N         143.4827  142.0678  165.3452 N.ar    1  UNL1       -0.2293
     32 C         142.4132  143.0306  164.9221 C.ar    1  UNL1        0.1188
     33 C         142.3305  143.0029  163.4246 C.ar    1  UNL1        0.0981
     34 N         143.3489  142.0228  162.9222 N.ar    1  UNL1       -0.3155
     35 C         143.6094  141.6807  161.4852 C.3     1  UNL1        0.0868
     36 C         144.4729  142.5751  160.6459 C.3     1  UNL1        0.0245
     37 C         143.0064  140.4441  160.8874 C.3     1  UNL1        0.0245
@<TRIPOS>BOND
     1    29    30    1
     2    30    31   ar
     3    31    32   ar
     4    32    33   ar
     5    33    23    1
     6    23    24   ar
     7    24    25   ar
     8    25    26   ar
     9    26    27   ar
    10    27    21    1
    11    21     1    1
    12     1     2   ar
    13     2     3   ar
    14     3     4   ar
    15     4     7    1
    16     7     8    1
    17     8     9    1
    18     9    10    1
    19    10    13    1
    20    13    14    2
    21    13    15    2
    22    13    16    1
    23    16    17    1
    24    17    18    1
    25    18    19    1
    26    18    20    1
    27    10    11    1
    28    11    12    1
    29     4     5   ar
    30     5     6   ar
    31    27    28   ar
    32    33    34   ar
    33    34    35    1
    34    35    36    1
    35    35    37    1
    36    34    30   ar
    37    28    23   ar
    38     6     1   ar
    39    12     7    1
    40    21    22    1
@<TRIPOS>MOLECULE
*****
 37 40 0 0 0
SMALL
GASTEIGER

@<TRIPOS>ATOM
      1 C         138.4560  139.6038  160.3997 C.ar    1  UNL1        0.0505
      2 C         138.9959  138.3966  161.1078 C.ar    1  UNL1        0.0159
      3 C         139.2707  138.4518  162.5814 C.ar    1  UNL1        0.0158
      4 C         139.0057  139.7143  163.3469 C.ar    1  UNL1        0.0480
      5 C         138.4659  140.9214  162.6389 C.ar    1  UNL1        0.0158
      6 C         138.1911  140.8662  161.1653 C.ar    1  UNL1        0.0159
      7 N         139.2806  139.7695  164.8205 N.pl3   1  UNL1       -0.3045
      8 C         140.5699  140.3495  165.3217 C.3     1  UNL1        0.1099
      9 C         140.8447  140.4047  166.7953 C.3     1  UNL1        0.1168
     10 N         139.8302  139.8799  167.7676 N.3     1  UNL1       -0.1559
     11 C         138.5409  139.2999  167.2664 C.3     1  UNL1        0.1168
     12 C         138.2661  139.2447  165.7928 C.3     1  UNL1        0.1099
     13 S         140.1050  139.9351  169.2412 S.O2    1  UNL1        0.0453
     14 O         138.6324  140.0223  169.5126 O.2     1  UNL1       -0.1572
     15 O         141.5777  139.8479  168.9699 O.2     1  UNL1       -0.1572
     16 C         140.3798  139.9904  170.7148 C.3     1  UNL1        0.1863
     17 C         141.1408  141.1464  171.2930 C.3     1  UNL1        0.0995
     18 N         140.9766  142.5190  170.7107 N.3     1  UNL1       -0.2688
     19 C         142.1311  143.1849  170.0225 C.3     1  UNL1        0.0897
     20 C         139.6576  143.2257  170.8164 C.3     1  UNL1        0.0897
     21 N         138.1812  139.5485  158.9262 N.pl3   1  UNL1       -0.2825
     22 H         137.2529  139.5367  158.5987 H       1  UNL1        0.1551
     23 C         140.5274  138.3899  155.9424 C.ar    1  UNL1        0.1030
     24 C         141.6001  139.4367  156.0023 C.ar    1  UNL1        0.0414
     25 C         141.5331  140.5207  157.0369 C.ar    1  UNL1        0.1034
     26 N         140.3935  140.5580  158.0115 N.ar    1  UNL1       -0.2120
     27 C         139.3208  139.5112  157.9516 C.ar    1  UNL1        0.2207
     28 N         139.3878  138.4272  156.9170 N.ar    1  UNL1       -0.2120
     29 C         142.1260  134.1995  153.1557 C.3     1  UNL1        0.0718
     30 C         141.3291  135.3797  153.6269 C.ar    1  UNL1        0.1208
     31 N         140.0654  135.8955  153.0047 N.ar    1  UNL1       -0.2293
     32 C         139.6113  137.0859  153.7963 C.ar    1  UNL1        0.1188
     33 C         140.5943  137.3058  154.9078 C.ar    1  UNL1        0.0981
     34 N         141.6559  136.2513  154.8031 N.ar    1  UNL1       -0.3155
     35 C         142.8371  136.0957  155.7145 C.3     1  UNL1        0.0868
     36 C         142.7497  135.1910  156.9078 C.3     1  UNL1        0.0245
     37 C         144.1057  136.8449  155.4327 C.3     1  UNL1        0.0245
@<TRIPOS>BOND
     1    29    30    1
     2    30    31   ar
     3    31    32   ar
     4    32    33   ar
     5    33    23    1
     6    23    24   ar
     7    24    25   ar
     8    25    26   ar
     9    26    27   ar
    10    27    21    1
    11    21     1    1
    12     1     2   ar
    13     2     3   ar
    14     3     4   ar
    15     4     7    1
    16     7     8    1
    17     8     9    1
    18     9    10    1
    19    10    13    1
    20    13    14    2
    21    13    15    2
    22    13    16    1
    23    16    17    1
    24    17    18    1
    25    18    19    1
    26    18    20    1
    27    10    11    1
    28    11    12    1
    29     4     5   ar
    30     5     6   ar
    31    27    28   ar
    32    33    34   ar
    33    34    35    1
    34    35    36    1
    35    35    37    1
    36    34    30   ar
    37    28    23   ar
    38     6     1   ar
    39    12     7    1
    40    21    22    1
@<TRIPOS>MOLECULE
*****
 37 40 0 0 0
SMALL
GASTEIGER

@<TRIPOS>ATOM
      1 C         139.4870  141.9005  159.2959 C.ar    1  UNL1        0.0505
      2 C         138.5706  140.7504  158.9997 C.ar    1  UNL1        0.0159
      3 C         139.1209  139.4855  158.4105 C.ar    1  UNL1        0.0158
      4 C         140.5875  139.3706  158.1174 C.ar    1  UNL1        0.0480
      5 C         141.5038  140.5207  158.4136 C.ar    1  UNL1        0.0158
      6 C         140.9536  141.7856  159.0028 C.ar    1  UNL1        0.0159
      7 N         141.1378  138.1057  157.5282 N.pl3   1  UNL1       -0.3045
      8 C         142.4244  137.5346  158.0464 C.3     1  UNL1        0.1099
      9 C         142.9746  136.2697  157.4572 C.3     1  UNL1        0.1168
     10 N         142.2382  135.5758  156.3498 N.3     1  UNL1       -0.1559
     11 C         140.9517  136.1469  155.8316 C.3     1  UNL1        0.1168
     12 C         140.4014  137.4118  156.4208 C.3     1  UNL1        0.1099
     13 S         142.7885  134.3109  155.7606 S.O2    1  UNL1        0.0453
     14 O         142.5999  133.6160  157.0764 O.2     1  UNL1       -0.1572
     15 O         142.9771  135.0058  154.4447 O.2     1  UNL1       -0.1572
     16 C         143.3388  133.0459  155.1714 C.3     1  UNL1        0.1863
     17 C         144.1986  132.1425  156.0047 C.3     1  UNL1        0.0995
     18 N         143.9184  130.6695  156.0470 N.3     1  UNL1       -0.2688
     19 C         143.9028  129.8723  154.7765 C.3     1  UNL1        0.0897
     20 C         143.6536  129.9937  157.3598 C.3     1  UNL1        0.0897
     21 N         138.9367  143.1654  159.8850 N.pl3   1  UNL1       -0.2825
     22 H         138.4815  143.8201  159.3076 H       1  UNL1        0.1551
     23 C         139.5921  142.5851  163.7559 C.ar    1  UNL1        0.1030
     24 C         139.3661  143.9676  164.2921 C.ar    1  UNL1        0.0414
     25 C         138.9970  145.0827  163.3592 C.ar    1  UNL1        0.1034
     26 N         138.8538  144.8153  161.8902 N.ar    1  UNL1       -0.2120
     27 C         139.0798  143.4328  161.3540 C.ar    1  UNL1        0.2207
     28 N         139.4490  142.3177  162.2869 N.ar    1  UNL1       -0.2120
     29 C         142.4090  139.1334  166.5901 C.3     1  UNL1        0.0718
     30 C         141.2560  139.8834  165.9915 C.ar    1  UNL1        0.1208
     31 N         139.8026  139.6244  166.2570 N.ar    1  UNL1       -0.2293
     32 C         139.0024  140.6049  165.4519 C.ar    1  UNL1        0.1188
     33 C         139.9613  141.4699  164.6888 C.ar    1  UNL1        0.0981
     34 N         141.3541  141.0240  165.0222 N.ar    1  UNL1       -0.3155
     35 C         142.6223  141.6149  164.4815 C.3     1  UNL1        0.0868
     36 C         143.0914  141.2515  163.1039 C.3     1  UNL1        0.0245
     37 C         143.4216  142.5692  165.3185 C.3     1  UNL1        0.0245
@<TRIPOS>BOND
     1    29    30    1
     2    30    31   ar
     3    31    32   ar
     4    32    33   ar
     5    33    23    1
     6    23    24   ar
     7    24    25   ar
     8    25    26   ar
     9    26    27   ar
    10    27    21    1
    11    21     1    1
    12     1     2   ar
    13     2     3   ar
    14     3     4   ar
    15     4     7    1
    16     7     8    1
    17     8     9    1
    18     9    10    1
    19    10    13    1
    20    13    14    2
    21    13    15    2
    22    13    16    1
    23    16    17    1
    24    17    18    1
    25    18    19    1
    26    18    20    1
    27    10    11    1
    28    11    12    1
    29     4     5   ar
    30     5     6   ar
    31    27    28   ar
    32    33    34   ar
    33    34    35    1
    34    35    36    1
    35    35    37    1
    36    34    30   ar
    37    28    23   ar
    38     6     1   ar
    39    12     7    1
    40    21    22    1
