@<TRIPOS>MOLECULE
*****
 37 41 0 0 0
SMALL
GASTEIGER

@<TRIPOS>ATOM
      1 N         142.4535  143.5416  159.6255 N.ar    1  UNL1       -0.2508
      2 N         143.0807  142.3529  160.2915 N.ar    1  UNL1       -0.1678
      3 C         142.5404  142.2654  161.6880 C.ar    1  UNL1        0.1194
      4 C         141.5793  143.4001  161.8852 C.ar    1  UNL1        0.0411
      5 C         140.7461  143.8170  163.0607 C.ar    1  UNL1        0.0402
      6 C         139.8592  145.0226  162.9615 C.ar    1  UNL1        0.1444
      7 C         139.8056  145.8114  161.6867 C.ar    1  UNL1        0.0386
      8 C         140.6388  145.3945  160.5112 C.ar    1  UNL1        0.0219
      9 C         141.5256  144.1888  160.6104 C.ar    1  UNL1        0.0796
     10 C         142.8983  141.2258  162.7084 C.ar    1  UNL1        0.0957
     11 C         143.7735  140.0694  162.3258 C.ar    1  UNL1        0.1191
     12 N         144.1314  139.0298  163.3462 N.ar    1  UNL1       -0.2223
     13 C         143.6140  139.1466  164.7492 C.ar    1  UNL1        0.1784
     14 N         143.7968  138.2826  165.9616 N.ar    1  UNL1       -0.2236
     15 C         143.0346  138.9050  167.0937 C.ar    1  UNL1        0.1066
     16 C         142.3806  140.1537  166.5809 C.ar    1  UNL1        0.0910
     17 C         142.7387  140.3031  165.1319 C.ar    1  UNL1        0.0988
     18 N         142.3808  141.3427  164.1116 N.ar    1  UNL1       -0.3481
     19 H         141.8063  142.1017  164.3627 H       1  UNL1        0.1661
     20 C         141.5196  141.0890  167.3772 C.2     1  UNL1        0.2488
     21 O         140.6360  142.0767  166.6747 O.2     1  UNL1       -0.2700
     22 N         141.5422  141.0364  168.8761 N.am    1  UNL1       -0.3039
     23 H         142.1221  140.3881  169.3372 H       1  UNL1        0.1496
     24 C         140.6813  141.9716  169.6724 C.3     1  UNL1        0.0572
     25 C         141.7734  142.9994  169.6461 C.3     1  UNL1        0.0196
     26 C         139.5890  140.9437  169.6987 C.3     1  UNL1        0.0196
     27 C         139.8203  142.9069  170.4687 C.3     1  UNL1        0.0196
     28 C         142.7094  144.0023  158.2211 C.3     1  UNL1        0.1302
     29 C         138.9100  146.0533  155.4667 C.3     1  UNL1        0.0896
     30 N         140.0228  145.4525  156.2735 N.3     1  UNL1       -0.2713
     31 C         140.2887  144.1043  156.8749 C.3     1  UNL1        0.0755
     32 C         141.5965  144.6030  157.4143 C.3     1  UNL1        0.0563
     33 C         141.3306  145.9512  156.8129 C.3     1  UNL1        0.0755
     34 O         139.0260  145.4396  164.1370 O.3     1  UNL1       -0.4236
     35 C         138.5902  144.4197  165.1469 C.3     1  UNL1        0.5087
     36 F         138.8906  144.6286  166.6016 F       1  UNL1       -0.1550
     37 F         137.8540  143.1907  164.7020 F       1  UNL1       -0.1550
@<TRIPOS>BOND
     1    29    30    1
     2    30    31    1
     3    31    32    1
     4    32    28    1
     5    28     1    1
     6     1     2   ar
     7     2     3   ar
     8     3    10    1
     9    10    11   ar
    10    11    12   ar
    11    12    13   ar
    12    13    14   ar
    13    14    15   ar
    14    15    16   ar
    15    16    20    1
    16    20    21    2
    17    20    22   am
    18    22    24    1
    19    24    25    1
    20    24    26    1
    21    24    27    1
    22    16    17   ar
    23    17    18   ar
    24     3     4   ar
    25     4     5   ar
    26     5     6   ar
    27     6    34    1
    28    34    35    1
    29    35    36    1
    30    35    37    1
    31     6     7   ar
    32     7     8   ar
    33     8     9   ar
    34    32    33    1
    35    33    30    1
    36     9     1   ar
    37    18    10   ar
    38     9     4   ar
    39    17    13    1
    40    22    23    1
    41    18    19    1
@<TRIPOS>MOLECULE
*****
 37 41 0 0 0
SMALL
GASTEIGER

@<TRIPOS>ATOM
      1 N         142.6308  143.2278  159.7367 N.ar    1  UNL1       -0.2508
      2 N         143.2355  142.0576  160.4543 N.ar    1  UNL1       -0.1678
      3 C         142.6921  142.0400  161.8523 C.ar    1  UNL1        0.1194
      4 C         141.7516  143.1993  161.9987 C.ar    1  UNL1        0.0411
      5 C         140.9248  143.6813  163.1537 C.ar    1  UNL1        0.0402
      6 C         140.0602  144.8975  163.0012 C.ar    1  UNL1        0.1444
      7 C         140.0223  145.6316  161.6936 C.ar    1  UNL1        0.0386
      8 C         140.8490  145.1495  160.5386 C.ar    1  UNL1        0.0219
      9 C         141.7137  143.9334  160.6912 C.ar    1  UNL1        0.0796
     10 C         143.0300  141.0389  162.9170 C.ar    1  UNL1        0.0957
     11 C         143.9272  139.8797  162.5991 C.ar    1  UNL1        0.1191
     12 N         144.2650  138.8786  163.6638 N.ar    1  UNL1       -0.2223
     13 C         143.7056  139.0366  165.0465 C.ar    1  UNL1        0.1784
     14 N         143.8611  138.2155  166.2921 N.ar    1  UNL1       -0.2236
     15 C         143.0600  138.8672  167.3800 C.ar    1  UNL1        0.1066
     16 C         142.4093  140.0911  166.8067 C.ar    1  UNL1        0.0910
     17 C         142.8083  140.1958  165.3646 C.ar    1  UNL1        0.0988
     18 N         142.4705  141.1969  164.2999 N.ar    1  UNL1       -0.3481
     19 H         141.8815  141.9578  164.5086 H       1  UNL1        0.1661
     20 C         141.5164  141.0432  167.5459 C.2     1  UNL1        0.2488
     21 O         140.5991  141.9547  166.7857 O.2     1  UNL1       -0.2700
     22 N         141.5408  141.0838  169.0451 N.am    1  UNL1       -0.3039
     23 H         142.1428  140.4856  169.5440 H       1  UNL1        0.1496
     24 C         140.6479  142.0359  169.7842 C.3     1  UNL1        0.0572
     25 C         141.7500  143.0531  169.8054 C.3     1  UNL1        0.0196
     26 C         139.5456  141.0186  169.7630 C.3     1  UNL1        0.0196
     27 C         139.7550  142.9880  170.5233 C.3     1  UNL1        0.0196
     28 C         142.8965  143.6230  158.3143 C.3     1  UNL1        0.1302
     29 C         146.1352  140.8729  155.4548 C.3     1  UNL1        0.0896
     30 N         145.1866  141.6784  156.2924 N.3     1  UNL1       -0.2713
     31 C         143.7671  142.1389  156.1413 C.3     1  UNL1        0.0755
     32 C         143.8451  142.8175  157.4767 C.3     1  UNL1        0.0563
     33 C         145.2647  142.3569  157.6278 C.3     1  UNL1        0.0755
     34 O         139.2333  145.3796  164.1562 O.3     1  UNL1       -0.4236
     35 C         138.6719  144.3953  165.1391 C.3     1  UNL1        0.5087
     36 F         137.7541  143.3061  164.6688 F       1  UNL1       -0.1550
     37 F         139.0283  144.5003  166.5924 F       1  UNL1       -0.1550
@<TRIPOS>BOND
     1    29    30    1
     2    30    31    1
     3    31    32    1
     4    32    28    1
     5    28     1    1
     6     1     2   ar
     7     2     3   ar
     8     3    10    1
     9    10    11   ar
    10    11    12   ar
    11    12    13   ar
    12    13    14   ar
    13    14    15   ar
    14    15    16   ar
    15    16    20    1
    16    20    21    2
    17    20    22   am
    18    22    24    1
    19    24    25    1
    20    24    26    1
    21    24    27    1
    22    16    17   ar
    23    17    18   ar
    24     3     4   ar
    25     4     5   ar
    26     5     6   ar
    27     6    34    1
    28    34    35    1
    29    35    36    1
    30    35    37    1
    31     6     7   ar
    32     7     8   ar
    33     8     9   ar
    34    32    33    1
    35    33    30    1
    36     9     1   ar
    37    18    10   ar
    38     9     4   ar
    39    17    13    1
    40    22    23    1
    41    18    19    1
@<TRIPOS>MOLECULE
*****
 37 41 0 0 0
SMALL
GASTEIGER

@<TRIPOS>ATOM
      1 N         139.2582  140.0035  165.7586 N.ar    1  UNL1       -0.2508
      2 N         139.1138  141.3794  165.1789 N.ar    1  UNL1       -0.1678
      3 C         139.6690  141.3559  163.7856 C.ar    1  UNL1        0.1194
      4 C         140.1564  139.9654  163.5042 C.ar    1  UNL1        0.0411
      5 C         140.7986  139.3525  162.2951 C.ar    1  UNL1        0.0402
      6 C         141.1870  137.9037  162.3055 C.ar    1  UNL1        0.1444
      7 C         140.9331  137.0679  163.5249 C.ar    1  UNL1        0.0386
      8 C         140.2909  137.6808  164.7339 C.ar    1  UNL1        0.0219
      9 C         139.9025  139.1296  164.7236 C.ar    1  UNL1        0.0796
     10 C         139.7265  142.5186  162.8397 C.ar    1  UNL1        0.0957
     11 C         138.8464  143.7122  163.0640 C.ar    1  UNL1        0.1191
     12 N         138.9040  144.8750  162.1181 N.ar    1  UNL1       -0.2223
     13 C         139.8418  144.8441  160.9479 C.ar    1  UNL1        0.1784
     14 N         140.1164  145.8344  159.8553 N.ar    1  UNL1       -0.2236
     15 C         141.1663  145.2529  158.9556 C.ar    1  UNL1        0.1066
     16 C         141.5406  143.9031  159.4922 C.ar    1  UNL1        0.0910
     17 C         140.7220  143.6505  160.7235 C.ar    1  UNL1        0.0988
     18 N         140.6644  142.4877  161.6694 N.ar    1  UNL1       -0.3481
     19 H         141.2422  141.7043  161.5221 H       1  UNL1        0.1661
     20 C         142.5554  142.9697  158.9013 C.2     1  UNL1        0.2488
     21 O         142.6419  141.5524  159.3846 O.2     1  UNL1       -0.2700
     22 N         143.4837  143.4538  157.8270 N.am    1  UNL1       -0.3039
     23 H         143.4269  144.3841  157.5098 H       1  UNL1        0.1496
     24 C         144.4984  142.5205  157.2362 C.3     1  UNL1        0.0572
     25 C         143.6010  142.2918  156.0562 C.3     1  UNL1        0.0196
     26 C         145.3959  142.7491  158.4161 C.3     1  UNL1        0.0196
     27 C         145.5132  141.5871  156.6452 C.3     1  UNL1        0.0196
     28 C         138.8329  139.5764  167.1321 C.3     1  UNL1        0.1302
     29 C         141.4702  141.1444  171.2327 C.3     1  UNL1        0.0896
     30 N         140.6978  140.6851  170.0316 N.3     1  UNL1       -0.2713
     31 C         139.2474  140.4497  169.7298 C.3     1  UNL1        0.0755
     32 C         139.6054  140.0357  168.3332 C.3     1  UNL1        0.0563
     33 C         141.0557  140.2711  168.6350 C.3     1  UNL1        0.0755
     34 O         141.8292  137.2907  161.0964 O.3     1  UNL1       -0.4236
     35 C         143.1594  137.7925  160.6181 C.3     1  UNL1        0.5087
     36 F         144.3905  137.5562  161.4418 F       1  UNL1       -0.1550
     37 F         143.2584  138.5307  159.3160 F       1  UNL1       -0.1550
@<TRIPOS>BOND
     1    29    30    1
     2    30    31    1
     3    31    32    1
     4    32    28    1
     5    28     1    1
     6     1     2   ar
     7     2     3   ar
     8     3    10    1
     9    10    11   ar
    10    11    12   ar
    11    12    13   ar
    12    13    14   ar
    13    14    15   ar
    14    15    16   ar
    15    16    20    1
    16    20    21    2
    17    20    22   am
    18    22    24    1
    19    24    25    1
    20    24    26    1
    21    24    27    1
    22    16    17   ar
    23    17    18   ar
    24     3     4   ar
    25     4     5   ar
    26     5     6   ar
    27     6    34    1
    28    34    35    1
    29    35    36    1
    30    35    37    1
    31     6     7   ar
    32     7     8   ar
    33     8     9   ar
    34    32    33    1
    35    33    30    1
    36     9     1   ar
    37    18    10   ar
    38     9     4   ar
    39    17    13    1
    40    22    23    1
    41    18    19    1
@<TRIPOS>MOLECULE
*****
 37 41 0 0 0
SMALL
GASTEIGER

@<TRIPOS>ATOM
      1 N         136.0082  141.4998  155.8758 N.ar    1  UNL1       -0.2508
      2 N         136.5557  140.4864  156.8367 N.ar    1  UNL1       -0.1678
      3 C         137.8381  141.0254  157.3978 C.ar    1  UNL1        0.1194
      4 C         138.0833  142.3718  156.7837 C.ar    1  UNL1        0.0411
      5 C         139.1902  143.3686  156.9595 C.ar    1  UNL1        0.0402
      6 C         139.1661  144.6587  156.1946 C.ar    1  UNL1        0.1444
      7 C         138.0351  144.9519  155.2539 C.ar    1  UNL1        0.0386
      8 C         136.9281  143.9550  155.0781 C.ar    1  UNL1        0.0219
      9 C         136.9522  142.6650  155.8430 C.ar    1  UNL1        0.0796
     10 C         138.7206  140.3385  158.3976 C.ar    1  UNL1        0.0957
     11 C         139.6147  139.2156  157.9622 C.ar    1  UNL1        0.1191
     12 N         140.4972  138.5288  158.9620 N.ar    1  UNL1       -0.2223
     13 C         140.4856  138.9648  160.3971 C.ar    1  UNL1        0.1784
     14 N         141.2400  138.4802  161.5995 N.ar    1  UNL1       -0.2236
     15 C         140.8122  139.3035  162.7781 C.ar    1  UNL1        0.1066
     16 C         139.7934  140.2971  162.3041 C.ar    1  UNL1        0.0910
     17 C         139.5915  140.0878  160.8325 C.ar    1  UNL1        0.0988
     18 N         138.7090  140.7746  159.8328 N.ar    1  UNL1       -0.3481
     19 H         138.1222  141.5117  160.1186 H       1  UNL1        0.1661
     20 C         139.0984  141.3204  163.1526 C.2     1  UNL1        0.2488
     21 O         137.7595  141.0115  163.7544 O.2     1  UNL1       -0.2700
     22 N         139.7422  142.6525  163.3994 N.am    1  UNL1       -0.3039
     23 H         140.6210  142.8552  163.0044 H       1  UNL1        0.1496
     24 C         139.0473  143.6756  164.2479 C.3     1  UNL1        0.0572
     25 C         139.7749  143.1672  165.4570 C.3     1  UNL1        0.0196
     26 C         138.3195  144.1841  163.0388 C.3     1  UNL1        0.0196
     27 C         138.3523  144.6989  165.0965 C.3     1  UNL1        0.0196
     28 C         134.7393  141.3706  155.0863 C.3     1  UNL1        0.1302
     29 C         130.4813  139.6422  157.3470 C.3     1  UNL1        0.0896
     30 N         131.7285  140.1485  156.6848 N.3     1  UNL1       -0.2713
     31 C         133.1711  139.7375  156.6849 C.3     1  UNL1        0.0755
     32 C         133.4922  140.8644  155.7484 C.3     1  UNL1        0.0563
     33 C         132.0495  141.2754  155.7483 C.3     1  UNL1        0.0755
     34 O         140.2730  145.6557  156.3704 O.3     1  UNL1       -0.4236
     35 C         140.8419  145.9119  157.7344 C.3     1  UNL1        0.5087
     36 F         142.2944  146.2528  157.8893 F       1  UNL1       -0.1550
     37 F         139.9583  145.8272  158.9437 F       1  UNL1       -0.1550
@<TRIPOS>BOND
     1    29    30    1
     2    30    31    1
     3    31    32    1
     4    32    28    1
     5    28     1    1
     6     1     2   ar
     7     2     3   ar
     8     3    10    1
     9    10    11   ar
    10    11    12   ar
    11    12    13   ar
    12    13    14   ar
    13    14    15   ar
    14    15    16   ar
    15    16    20    1
    16    20    21    2
    17    20    22   am
    18    22    24    1
    19    24    25    1
    20    24    26    1
    21    24    27    1
    22    16    17   ar
    23    17    18   ar
    24     3     4   ar
    25     4     5   ar
    26     5     6   ar
    27     6    34    1
    28    34    35    1
    29    35    36    1
    30    35    37    1
    31     6     7   ar
    32     7     8   ar
    33     8     9   ar
    34    32    33    1
    35    33    30    1
    36     9     1   ar
    37    18    10   ar
    38     9     4   ar
    39    17    13    1
    40    22    23    1
    41    18    19    1
@<TRIPOS>MOLECULE
*****
 37 41 0 0 0
SMALL
GASTEIGER

@<TRIPOS>ATOM
      1 N         142.1670  139.9426  159.4721 N.ar    1  UNL1       -0.2508
      2 N         141.0809  139.2875  160.2729 N.ar    1  UNL1       -0.1678
      3 C         141.2582  139.6866  161.7079 C.ar    1  UNL1        0.1194
      4 C         142.4539  140.5882  161.7940 C.ar    1  UNL1        0.0411
      5 C         143.1037  141.2856  162.9522 C.ar    1  UNL1        0.0402
      6 C         144.3152  142.1413  162.7285 C.ar    1  UNL1        0.1444
      7 C         144.8769  142.2995  161.3466 C.ar    1  UNL1        0.0386
      8 C         144.2270  141.6022  160.1885 C.ar    1  UNL1        0.0219
      9 C         143.0155  140.7465  160.4122 C.ar    1  UNL1        0.0796
     10 C         140.3919  139.2590  162.8554 C.ar    1  UNL1        0.0957
     11 C         139.3917  138.1568  162.6700 C.ar    1  UNL1        0.1191
     12 N         138.5254  137.7292  163.8175 N.ar    1  UNL1       -0.2223
     13 C         138.6594  138.4038  165.1505 C.ar    1  UNL1        0.1784
     14 N         137.9483  138.1989  166.4552 N.ar    1  UNL1       -0.2236
     15 C         138.5091  139.1745  167.4470 C.ar    1  UNL1        0.1066
     16 C         139.5668  139.9824  166.7553 C.ar    1  UNL1        0.0910
     17 C         139.6598  139.5061  165.3360 C.ar    1  UNL1        0.0988
     18 N         140.5260  139.9337  164.1885 N.ar    1  UNL1       -0.3481
     19 H         141.1826  140.6571  164.3102 H       1  UNL1        0.1661
     20 C         140.3876  141.0748  167.3743 C.2     1  UNL1        0.2488
     21 O         140.9018  142.1994  166.5252 O.2     1  UNL1       -0.2700
     22 N         140.6940  141.0427  168.8422 N.am    1  UNL1       -0.3039
     23 H         140.3565  140.3046  169.3995 H       1  UNL1        0.1496
     24 C         141.5147  142.1350  169.4611 C.3     1  UNL1        0.0572
     25 C         140.2680  142.9312  169.7092 C.3     1  UNL1        0.0196
     26 C         142.7616  141.3389  169.2131 C.3     1  UNL1        0.0196
     27 C         142.3355  143.2275  170.0801 C.3     1  UNL1        0.0196
     28 C         142.3691  139.8161  157.9912 C.3     1  UNL1        0.1302
     29 C         141.6051  135.3111  155.6782 C.3     1  UNL1        0.0896
     30 N         141.8289  136.6306  156.3556 N.3     1  UNL1       -0.2713
     31 C         140.9428  137.6592  156.9935 C.3     1  UNL1        0.0755
     32 C         142.1453  138.4966  157.3137 C.3     1  UNL1        0.0563
     33 C         143.0315  137.4680  156.6758 C.3     1  UNL1        0.0755
     34 O         144.9651  142.8387  163.8867 O.3     1  UNL1       -0.4236
     35 C         144.1257  143.5934  164.8745 C.3     1  UNL1        0.5087
     36 F         143.2859  144.7489  164.4169 F       1  UNL1       -0.1550
     37 F         144.1263  143.1927  166.3200 F       1  UNL1       -0.1550
@<TRIPOS>BOND
     1    29    30    1
     2    30    31    1
     3    31    32    1
     4    32    28    1
     5    28     1    1
     6     1     2   ar
     7     2     3   ar
     8     3    10    1
     9    10    11   ar
    10    11    12   ar
    11    12    13   ar
    12    13    14   ar
    13    14    15   ar
    14    15    16   ar
    15    16    20    1
    16    20    21    2
    17    20    22   am
    18    22    24    1
    19    24    25    1
    20    24    26    1
    21    24    27    1
    22    16    17   ar
    23    17    18   ar
    24     3     4   ar
    25     4     5   ar
    26     5     6   ar
    27     6    34    1
    28    34    35    1
    29    35    36    1
    30    35    37    1
    31     6     7   ar
    32     7     8   ar
    33     8     9   ar
    34    32    33    1
    35    33    30    1
    36     9     1   ar
    37    18    10   ar
    38     9     4   ar
    39    17    13    1
    40    22    23    1
    41    18    19    1
@<TRIPOS>MOLECULE
*****
 37 41 0 0 0
SMALL
GASTEIGER

@<TRIPOS>ATOM
      1 N         139.2423  139.3767  163.9793 N.ar    1  UNL1       -0.2508
      2 N         140.3318  138.9173  163.0564 N.ar    1  UNL1       -0.1678
      3 C         140.6800  140.0578  162.1464 C.ar    1  UNL1        0.1194
      4 C         139.8056  141.2220  162.5069 C.ar    1  UNL1        0.0411
      5 C         139.7038  142.6111  161.9501 C.ar    1  UNL1        0.0402
      6 C         138.7133  143.5792  162.5260 C.ar    1  UNL1        0.1444
      7 C         137.8247  143.1582  163.6588 C.ar    1  UNL1        0.0386
      8 C         137.9266  141.7692  164.2156 C.ar    1  UNL1        0.0219
      9 C         138.9170  140.8011  163.6397 C.ar    1  UNL1        0.0796
     10 C         141.7200  140.0376  161.0656 C.ar    1  UNL1        0.0957
     11 C         142.8166  139.0148  161.0990 C.ar    1  UNL1        0.1191
     12 N         143.8566  138.9947  160.0182 N.ar    1  UNL1       -0.2223
     13 C         143.7999  139.9973  158.9041 C.ar    1  UNL1        0.1784
     14 N         144.6787  140.2208  157.7092 N.ar    1  UNL1       -0.2236
     15 C         144.1252  141.3817  156.9372 C.ar    1  UNL1        0.1066
     16 C         142.9043  141.8757  157.6551 C.ar    1  UNL1        0.0910
     17 C         142.7033  141.0202  158.8706 C.ar    1  UNL1        0.0988
     18 N         141.6633  141.0403  159.9514 N.ar    1  UNL1       -0.3481
     19 H         140.9435  141.7117  159.9294 H       1  UNL1        0.1661
     20 C         142.0367  143.0238  157.2316 C.2     1  UNL1        0.2488
     21 O         140.5637  142.9946  157.5135 O.2     1  UNL1       -0.2700
     22 N         142.6421  144.2011  156.5264 N.am    1  UNL1       -0.3039
     23 H         143.6089  144.2203  156.3414 H       1  UNL1        0.1496
     24 C         141.7745  145.3492  156.1030 C.3     1  UNL1        0.0572
     25 C         141.5343  144.6804  154.7821 C.3     1  UNL1        0.0196
     26 C         142.0148  146.0180  157.4241 C.3     1  UNL1        0.0196
     27 C         140.9069  146.4972  155.6796 C.3     1  UNL1        0.0196
     28 C         138.5920  138.5558  165.0532 C.3     1  UNL1        0.1302
     29 C         138.7412  140.1310  169.9241 C.3     1  UNL1        0.0896
     30 N         138.6975  139.6696  168.4974 N.3     1  UNL1       -0.2713
     31 C         139.5521  139.8905  167.2846 C.3     1  UNL1        0.0755
     32 C         138.6357  139.0172  166.4799 C.3     1  UNL1        0.0563
     33 C         137.7811  138.7963  167.6927 C.3     1  UNL1        0.0755
     34 O         138.6114  144.9683  161.9692 O.3     1  UNL1       -0.4236
     35 C         139.8521  145.7046  161.5586 C.3     1  UNL1        0.5087
     36 F         140.9096  146.0175  162.5753 F       1  UNL1       -0.1550
     37 F         140.0352  146.1280  160.1312 F       1  UNL1       -0.1550
@<TRIPOS>BOND
     1    29    30    1
     2    30    31    1
     3    31    32    1
     4    32    28    1
     5    28     1    1
     6     1     2   ar
     7     2     3   ar
     8     3    10    1
     9    10    11   ar
    10    11    12   ar
    11    12    13   ar
    12    13    14   ar
    13    14    15   ar
    14    15    16   ar
    15    16    20    1
    16    20    21    2
    17    20    22   am
    18    22    24    1
    19    24    25    1
    20    24    26    1
    21    24    27    1
    22    16    17   ar
    23    17    18   ar
    24     3     4   ar
    25     4     5   ar
    26     5     6   ar
    27     6    34    1
    28    34    35    1
    29    35    36    1
    30    35    37    1
    31     6     7   ar
    32     7     8   ar
    33     8     9   ar
    34    32    33    1
    35    33    30    1
    36     9     1   ar
    37    18    10   ar
    38     9     4   ar
    39    17    13    1
    40    22    23    1
    41    18    19    1
@<TRIPOS>MOLECULE
*****
 37 41 0 0 0
SMALL
GASTEIGER

@<TRIPOS>ATOM
      1 N         140.3632  143.3151  159.7959 N.ar    1  UNL1       -0.2508
      2 N         139.3899  142.6918  160.7521 N.ar    1  UNL1       -0.1678
      3 C         140.1728  141.9236  161.7753 C.ar    1  UNL1        0.1194
      4 C         141.6299  142.0721  161.4515 C.ar    1  UNL1        0.0411
      5 C         142.8647  141.5354  162.1126 C.ar    1  UNL1        0.0402
      6 C         144.2172  141.8587  161.5503 C.ar    1  UNL1        0.1444
      7 C         144.3349  142.7187  160.3269 C.ar    1  UNL1        0.0386
      8 C         143.1000  143.2554  159.6659 C.ar    1  UNL1        0.0219
      9 C         141.7475  142.9321  160.2282 C.ar    1  UNL1        0.0796
     10 C         139.5993  141.1438  162.9212 C.ar    1  UNL1        0.0957
     11 C         138.5335  140.1183  162.6717 C.ar    1  UNL1        0.1191
     12 N         137.9600  139.3385  163.8176 N.ar    1  UNL1       -0.2223
     13 C         138.4524  139.5842  165.2130 C.ar    1  UNL1        0.1784
     14 N         138.0785  138.9741  166.5313 N.ar    1  UNL1       -0.2236
     15 C         138.9133  139.6224  167.5956 C.ar    1  UNL1        0.1066
     16 C         139.8031  140.6333  166.9350 C.ar    1  UNL1        0.0910
     17 C         139.5182  140.6097  165.4625 C.ar    1  UNL1        0.0988
     18 N         140.0917  141.3895  164.3167 N.ar    1  UNL1       -0.3481
     19 H         140.7913  142.0626  164.4804 H       1  UNL1        0.1661
     20 C         140.8024  141.5134  167.6258 C.2     1  UNL1        0.2488
     21 O         141.6174  142.4901  166.8310 O.2     1  UNL1       -0.2700
     22 N         140.9865  141.4167  169.1113 N.am    1  UNL1       -0.3039
     23 H         140.4516  140.7756  169.6329 H       1  UNL1        0.1496
     24 C         141.9857  142.2967  169.8019 C.3     1  UNL1        0.0572
     25 C         140.9463  143.3694  169.9390 C.3     1  UNL1        0.0196
     26 C         143.0253  141.2240  169.6649 C.3     1  UNL1        0.0196
     27 C         142.9850  143.1768  170.4927 C.3     1  UNL1        0.0196
     28 C         140.0134  144.1710  158.6148 C.3     1  UNL1        0.1302
     29 C         140.7076  142.3873  153.8645 C.3     1  UNL1        0.0896
     30 N         140.5043  142.9098  155.2559 N.3     1  UNL1       -0.2713
     31 C         139.6865  142.4849  156.4394 C.3     1  UNL1        0.0755
     32 C         140.2168  143.6486  157.2234 C.3     1  UNL1        0.0563
     33 C         141.0345  144.0735  156.0399 C.3     1  UNL1        0.0755
     34 O         145.4522  141.3220  162.2113 O.3     1  UNL1       -0.4236
     35 C         145.5240  141.2333  163.7070 C.3     1  UNL1        0.5087
     36 F         145.5229  139.8927  164.3797 F       1  UNL1       -0.1550
     37 F         145.5969  142.4854  164.5299 F       1  UNL1       -0.1550
@<TRIPOS>BOND
     1    29    30    1
     2    30    31    1
     3    31    32    1
     4    32    28    1
     5    28     1    1
     6     1     2   ar
     7     2     3   ar
     8     3    10    1
     9    10    11   ar
    10    11    12   ar
    11    12    13   ar
    12    13    14   ar
    13    14    15   ar
    14    15    16   ar
    15    16    20    1
    16    20    21    2
    17    20    22   am
    18    22    24    1
    19    24    25    1
    20    24    26    1
    21    24    27    1
    22    16    17   ar
    23    17    18   ar
    24     3     4   ar
    25     4     5   ar
    26     5     6   ar
    27     6    34    1
    28    34    35    1
    29    35    36    1
    30    35    37    1
    31     6     7   ar
    32     7     8   ar
    33     8     9   ar
    34    32    33    1
    35    33    30    1
    36     9     1   ar
    37    18    10   ar
    38     9     4   ar
    39    17    13    1
    40    22    23    1
    41    18    19    1
@<TRIPOS>MOLECULE
*****
 37 41 0 0 0
SMALL
GASTEIGER

@<TRIPOS>ATOM
      1 N         141.3994  141.1249  167.5870 N.ar    1  UNL1       -0.2508
      2 N         140.7208  142.2903  166.9303 N.ar    1  UNL1       -0.1678
      3 C         141.0704  142.2686  165.4718 C.ar    1  UNL1        0.1194
      4 C         141.9650  141.0897  165.2270 C.ar    1  UNL1        0.0411
      5 C         142.6207  140.5686  163.9827 C.ar    1  UNL1        0.0402
      6 C         143.4798  139.3407  164.0456 C.ar    1  UNL1        0.1444
      7 C         143.6831  138.6338  165.3529 C.ar    1  UNL1        0.0386
      8 C         143.0274  139.1549  166.5972 C.ar    1  UNL1        0.0219
      9 C         142.1683  140.3829  166.5343 C.ar    1  UNL1        0.0796
     10 C         140.6067  143.2529  164.4392 C.ar    1  UNL1        0.0957
     11 C         139.5964  144.3005  164.8020 C.ar    1  UNL1        0.1191
     12 N         139.1328  145.2849  163.7695 N.ar    1  UNL1       -0.2223
     13 C         139.6795  145.2216  162.3741 C.ar    1  UNL1        0.1784
     14 N         139.4129  146.0510  161.1531 N.ar    1  UNL1       -0.2236
     15 C         140.2585  145.5161  160.0356 C.ar    1  UNL1        0.1066
     16 C         141.0477  144.3560  160.5660 C.ar    1  UNL1        0.0910
     17 C         140.6898  144.1740  162.0112 C.ar    1  UNL1        0.0988
     18 N         141.1535  143.1896  163.0438 N.ar    1  UNL1       -0.3481
     19 H         141.8166  142.5021  162.8056 H       1  UNL1        0.1661
     20 C         142.0235  143.5239  159.7877 C.2     1  UNL1        0.2488
     21 O         142.9896  144.1833  158.8487 O.2     1  UNL1       -0.2700
     22 N         142.0330  142.0326  159.9485 N.am    1  UNL1       -0.3039
     23 H         141.3989  141.5999  160.5648 H       1  UNL1        0.1496
     24 C         143.0088  141.2007  159.1702 C.3     1  UNL1        0.0572
     25 C         144.0197  141.3607  160.2667 C.3     1  UNL1        0.0196
     26 C         141.9978  141.0406  158.0737 C.3     1  UNL1        0.0196
     27 C         143.9846  140.3687  158.3920 C.3     1  UNL1        0.0196
     28 C         141.3225  140.7646  169.0410 C.3     1  UNL1        0.1302
     29 C         136.9054  139.1157  171.0406 C.3     1  UNL1        0.0896
     30 N         138.1992  139.5987  170.4550 N.3     1  UNL1       -0.2713
     31 C         138.6618  139.9895  169.0826 C.3     1  UNL1        0.0755
     32 C         140.0287  140.2816  169.6267 C.3     1  UNL1        0.0563
     33 C         139.5661  139.8908  170.9991 C.3     1  UNL1        0.0755
     34 O         144.1356  138.8195  162.8012 O.3     1  UNL1       -0.4236
     35 C         143.3327  138.0449  161.7985 C.3     1  UNL1        0.5087
     36 F         143.8233  137.9109  160.3873 F       1  UNL1       -0.1550
     37 F         142.0393  137.4043  162.2069 F       1  UNL1       -0.1550
@<TRIPOS>BOND
     1    29    30    1
     2    30    31    1
     3    31    32    1
     4    32    28    1
     5    28     1    1
     6     1     2   ar
     7     2     3   ar
     8     3    10    1
     9    10    11   ar
    10    11    12   ar
    11    12    13   ar
    12    13    14   ar
    13    14    15   ar
    14    15    16   ar
    15    16    20    1
    16    20    21    2
    17    20    22   am
    18    22    24    1
    19    24    25    1
    20    24    26    1
    21    24    27    1
    22    16    17   ar
    23    17    18   ar
    24     3     4   ar
    25     4     5   ar
    26     5     6   ar
    27     6    34    1
    28    34    35    1
    29    35    36    1
    30    35    37    1
    31     6     7   ar
    32     7     8   ar
    33     8     9   ar
    34    32    33    1
    35    33    30    1
    36     9     1   ar
    37    18    10   ar
    38     9     4   ar
    39    17    13    1
    40    22    23    1
    41    18    19    1
@<TRIPOS>MOLECULE
*****
 37 41 0 0 0
SMALL
GASTEIGER

@<TRIPOS>ATOM
      1 N         141.8954  141.0186  159.3908 N.ar    1  UNL1       -0.2508
      2 N         140.8268  140.2782  160.1390 N.ar    1  UNL1       -0.1678
      3 C         141.1249  140.3903  161.6048 C.ar    1  UNL1        0.1194
      4 C         142.3777  141.2000  161.7625 C.ar    1  UNL1        0.0411
      5 C         143.1464  141.6337  162.9753 C.ar    1  UNL1        0.0402
      6 C         144.3913  142.4559  162.8198 C.ar    1  UNL1        0.1444
      7 C         144.8675  142.8442  161.4514 C.ar    1  UNL1        0.0386
      8 C         144.0989  142.4104  160.2386 C.ar    1  UNL1        0.0219
      9 C         142.8539  141.5883  160.3942 C.ar    1  UNL1        0.0796
     10 C         140.3127  139.7969  162.7175 C.ar    1  UNL1        0.0957
     11 C         139.3972  138.6407  162.4439 C.ar    1  UNL1        0.1191
     12 N         138.5850  138.0473  163.5566 N.ar    1  UNL1       -0.2223
     13 C         138.6883  138.6102  164.9432 C.ar    1  UNL1        0.1784
     14 N         138.0162  138.2361  166.2309 N.ar    1  UNL1       -0.2236
     15 C         138.5163  139.1611  167.3006 C.ar    1  UNL1        0.1066
     16 C         139.4975  140.1069  166.6739 C.ar    1  UNL1        0.0910
     17 C         139.6038  139.7664  165.2169 C.ar    1  UNL1        0.0988
     18 N         140.4160  140.3598  164.1042 N.ar    1  UNL1       -0.3481
     19 H         141.0169  141.1187  164.2839 H       1  UNL1        0.1661
     20 C         140.2418  141.2011  167.3802 C.2     1  UNL1        0.2488
     21 O         140.6117  142.4538  166.6426 O.2     1  UNL1       -0.2700
     22 N         140.6161  141.0427  168.8240 N.am    1  UNL1       -0.3039
     23 H         140.3734  140.2205  169.3082 H       1  UNL1        0.1496
     24 C         141.3604  142.1369  169.5303 C.3     1  UNL1        0.0572
     25 C         140.0618  142.6987  170.0282 C.3     1  UNL1        0.0196
     26 C         142.6590  141.5751  169.0323 C.3     1  UNL1        0.0196
     27 C         142.1046  143.2312  170.2366 C.3     1  UNL1        0.0196
     28 C         141.9891  141.1639  157.9008 C.3     1  UNL1        0.1302
     29 C         146.5709  141.5914  155.6528 C.3     1  UNL1        0.0896
     30 N         145.2289  141.4662  156.3112 N.3     1  UNL1       -0.2713
     31 C         144.0588  142.3820  156.5170 C.3     1  UNL1        0.0755
     32 C         143.3312  141.2891  157.2423 C.3     1  UNL1        0.0563
     33 C         144.5012  140.3734  157.0366 C.3     1  UNL1        0.0755
     34 O         145.1600  142.8897  164.0326 O.3     1  UNL1       -0.4236
     35 C         144.4932  143.7275  165.0831 C.3     1  UNL1        0.5087
     36 F         144.1705  143.1340  166.4224 F       1  UNL1       -0.1550
     37 F         144.1492  145.1587  164.7944 F       1  UNL1       -0.1550
@<TRIPOS>BOND
     1    29    30    1
     2    30    31    1
     3    31    32    1
     4    32    28    1
     5    28     1    1
     6     1     2   ar
     7     2     3   ar
     8     3    10    1
     9    10    11   ar
    10    11    12   ar
    11    12    13   ar
    12    13    14   ar
    13    14    15   ar
    14    15    16   ar
    15    16    20    1
    16    20    21    2
    17    20    22   am
    18    22    24    1
    19    24    25    1
    20    24    26    1
    21    24    27    1
    22    16    17   ar
    23    17    18   ar
    24     3     4   ar
    25     4     5   ar
    26     5     6   ar
    27     6    34    1
    28    34    35    1
    29    35    36    1
    30    35    37    1
    31     6     7   ar
    32     7     8   ar
    33     8     9   ar
    34    32    33    1
    35    33    30    1
    36     9     1   ar
    37    18    10   ar
    38     9     4   ar
    39    17    13    1
    40    22    23    1
    41    18    19    1
