@<TRIPOS>MOLECULE
*****
 36 40 0 0 0
SMALL
GASTEIGER

@<TRIPOS>ATOM
      1 C         142.3608  140.0559  165.7836 C.2     1  UNL1       -0.0221
      2 C         140.9992  140.1233  165.1581 C.2     1  UNL1       -0.0040
      3 C         139.8457  139.4047  165.7931 C.ar    1  UNL1       -0.0001
      4 C         139.3582  138.1098  165.2140 C.ar    1  UNL1        0.0031
      5 C         138.2048  137.3913  165.8490 C.ar    1  UNL1        0.0366
      6 C         137.5388  137.9678  167.0631 C.ar    1  UNL1        0.1337
      7 O         136.3852  137.2492  167.6982 O.3     1  UNL1       -0.5055
      8 C         138.0262  139.2627  167.6422 C.ar    1  UNL1        0.0366
      9 C         139.1797  139.9812  167.0072 C.ar    1  UNL1        0.0031
     10 H         136.0807  136.4403  167.3364 H       1  UNL1        0.2922
     11 C         140.7910  140.9092  163.8975 C.ar    1  UNL1       -0.0003
     12 C         140.3206  142.3317  163.9696 C.ar    1  UNL1       -0.0003
     13 C         140.1124  143.1175  162.7090 C.ar    1  UNL1       -0.0043
     14 C         140.3745  142.4809  161.3764 C.ar    1  UNL1       -0.0224
     15 C         140.8449  141.0584  161.3043 C.ar    1  UNL1       -0.0043
     16 C         141.0531  140.2725  162.5648 C.ar    1  UNL1       -0.0003
     17 C         140.1663  143.2668  160.1158 C.3     1  UNL1        0.0251
     18 C         139.5309  142.6165  158.9229 C.3     1  UNL1        0.0217
     19 C         139.3226  143.4024  157.6623 C.3     1  UNL1        0.0724
     20 N         139.7499  144.8386  157.5947 N.3     1  UNL1       -0.2739
     21 C         140.3854  145.4891  158.7877 C.3     1  UNL1        0.0724
     22 C         140.5936  144.7032  160.0483 C.3     1  UNL1        0.0217
     23 C         139.5417  145.6245  156.3342 C.3     1  UNL1        0.0576
     24 C         140.0964  146.4511  155.2121 C.3     1  UNL1        0.0173
     25 C         138.6263  146.1591  155.2729 C.3     1  UNL1        0.0173
     26 C         143.5143  140.7744  165.1486 C.ar    1  UNL1       -0.0040
     27 C         143.7349  142.2318  165.4266 C.ar    1  UNL1       -0.0003
     28 C         144.8883  142.9503  164.7916 C.ar    1  UNL1       -0.0000
     29 C         145.8213  142.2114  163.8786 C.ar    1  UNL1       -0.0000
     30 C         145.6008  140.7540  163.6006 C.ar    1  UNL1       -0.0000
     31 C         144.4473  140.0355  164.2356 C.ar    1  UNL1       -0.0003
     32 C         142.5690  139.2700  167.0442 C.3     1  UNL1        0.0289
     33 C         142.6706  139.9793  168.3621 C.3     1  UNL1        0.0364
     34 O         142.9829  138.3548  170.3655 O.3     1  UNL1       -0.3820
     35 C         142.1361  139.3320  169.6052 C.3     1  UNL1        0.1375
     36 H         142.4911  138.0325  171.1369 H       1  UNL1        0.2104
@<TRIPOS>BOND
     1    34    35    1
     2    35    33    1
     3    33    32    1
     4    32     1    1
     5     1     2    2
     6     2     3    1
     7     3     4   ar
     8     4     5   ar
     9     5     6   ar
    10     6     7    1
    11     6     8   ar
    12     8     9   ar
    13     2    11    1
    14    11    12   ar
    15    12    13   ar
    16    13    14   ar
    17    14    17    1
    18    17    18    1
    19    18    19    1
    20    19    20    1
    21    20    23    1
    22    23    24    1
    23    24    25    1
    24    20    21    1
    25    21    22    1
    26    14    15   ar
    27    15    16   ar
    28     1    26    1
    29    26    27   ar
    30    27    28   ar
    31    28    29   ar
    32    29    30   ar
    33    30    31   ar
    34     9     3   ar
    35    16    11   ar
    36    31    26   ar
    37    22    17    1
    38    25    23    1
    39    34    36    1
    40     7    10    1
@<TRIPOS>MOLECULE
*****
 36 40 0 0 0
SMALL
GASTEIGER

@<TRIPOS>ATOM
      1 C         141.5235  141.5770  165.0454 C.2     1  UNL1       -0.0221
      2 C         140.3723  140.8976  164.3649 C.2     1  UNL1       -0.0040
      3 C         139.5852  139.8475  165.0916 C.ar    1  UNL1       -0.0001
      4 C         138.7973  140.2130  166.3144 C.ar    1  UNL1        0.0031
      5 C         138.0102  139.1629  167.0410 C.ar    1  UNL1        0.0366
      6 C         138.0112  137.7474  166.5447 C.ar    1  UNL1        0.1337
      7 O         137.2241  136.6973  167.2714 O.3     1  UNL1       -0.5055
      8 C         138.7992  137.3819  165.3218 C.ar    1  UNL1        0.0366
      9 C         139.5862  138.4320  164.5953 C.ar    1  UNL1        0.0031
     10 H         136.7319  136.9257  168.0353 H       1  UNL1        0.2922
     11 C         140.0081  141.2681  162.9577 C.ar    1  UNL1       -0.0003
     12 C         138.9280  142.2774  162.7036 C.ar    1  UNL1       -0.0003
     13 C         138.5638  142.6479  161.2964 C.ar    1  UNL1       -0.0043
     14 C         139.2798  142.0092  160.1434 C.ar    1  UNL1       -0.0224
     15 C         140.3600  140.9999  160.3976 C.ar    1  UNL1       -0.0043
     16 C         140.7242  140.6294  161.8047 C.ar    1  UNL1       -0.0003
     17 C         138.9157  142.3798  158.7363 C.3     1  UNL1        0.0251
     18 C         137.8602  141.6038  158.0056 C.3     1  UNL1        0.0217
     19 C         137.4961  141.9744  156.5985 C.3     1  UNL1        0.0724
     20 N         138.1873  143.1209  155.9220 N.3     1  UNL1       -0.2739
     21 C         139.2428  143.8969  156.6526 C.3     1  UNL1        0.0724
     22 C         139.6070  143.5263  158.0598 C.3     1  UNL1        0.0217
     23 C         137.8232  143.4914  154.5148 C.3     1  UNL1        0.0576
     24 C         136.7913  143.8925  153.5028 C.3     1  UNL1        0.0173
     25 C         138.2243  143.7321  153.0897 C.3     1  UNL1        0.0173
     26 C         142.3105  142.6271  164.3187 C.ar    1  UNL1       -0.0040
     27 C         141.8399  144.0513  164.3189 C.ar    1  UNL1       -0.0003
     28 C         142.6270  145.1013  163.5922 C.ar    1  UNL1       -0.0000
     29 C         143.8846  144.7271  162.8655 C.ar    1  UNL1       -0.0000
     30 C         144.3553  143.3028  162.8654 C.ar    1  UNL1       -0.0000
     31 C         143.5682  142.2529  163.5920 C.ar    1  UNL1       -0.0003
     32 C         141.8876  141.2065  166.4525 C.3     1  UNL1        0.0289
     33 C         142.8980  142.0208  167.2050 C.3     1  UNL1        0.0364
     34 O         144.0373  142.6683  169.4484 O.3     1  UNL1       -0.3820
     35 C         142.9465  141.9581  168.7029 C.3     1  UNL1        0.1375
     36 H         143.9226  142.5272  170.4012 H       1  UNL1        0.2104
@<TRIPOS>BOND
     1    34    35    1
     2    35    33    1
     3    33    32    1
     4    32     1    1
     5     1     2    2
     6     2     3    1
     7     3     4   ar
     8     4     5   ar
     9     5     6   ar
    10     6     7    1
    11     6     8   ar
    12     8     9   ar
    13     2    11    1
    14    11    12   ar
    15    12    13   ar
    16    13    14   ar
    17    14    17    1
    18    17    18    1
    19    18    19    1
    20    19    20    1
    21    20    23    1
    22    23    24    1
    23    24    25    1
    24    20    21    1
    25    21    22    1
    26    14    15   ar
    27    15    16   ar
    28     1    26    1
    29    26    27   ar
    30    27    28   ar
    31    28    29   ar
    32    29    30   ar
    33    30    31   ar
    34     9     3   ar
    35    16    11   ar
    36    31    26   ar
    37    22    17    1
    38    25    23    1
    39    34    36    1
    40     7    10    1
@<TRIPOS>MOLECULE
*****
 36 40 0 0 0
SMALL
GASTEIGER

@<TRIPOS>ATOM
      1 C         141.3781  141.5291  165.0666 C.2     1  UNL1       -0.0221
      2 C         140.2571  140.8165  164.3699 C.2     1  UNL1       -0.0040
      3 C         139.4905  139.7440  165.0855 C.ar    1  UNL1       -0.0001
      4 C         138.6039  140.1002  166.2417 C.ar    1  UNL1        0.0031
      5 C         137.8374  139.0277  166.9572 C.ar    1  UNL1        0.0366
      6 C         137.9574  137.5989  166.5165 C.ar    1  UNL1        0.1337
      7 O         137.1908  136.5264  167.2322 O.3     1  UNL1       -0.5055
      8 C         138.8440  137.2427  165.3603 C.ar    1  UNL1        0.0366
      9 C         139.6106  138.3152  164.6448 C.ar    1  UNL1        0.0031
     10 H         136.6370  136.7489  167.9544 H       1  UNL1        0.2922
     11 C         139.9027  141.1764  162.9574 C.ar    1  UNL1       -0.0003
     12 C         140.6015  140.5026  161.8139 C.ar    1  UNL1       -0.0003
     13 C         140.2471  140.8625  160.4015 C.ar    1  UNL1       -0.0043
     14 C         139.1939  141.8961  160.1326 C.ar    1  UNL1       -0.0224
     15 C         138.4950  142.5699  161.2762 C.ar    1  UNL1       -0.0043
     16 C         138.8494  142.2101  162.6886 C.ar    1  UNL1       -0.0003
     17 C         138.8394  142.2560  158.7202 C.3     1  UNL1        0.0251
     18 C         139.4009  143.5010  158.1000 C.3     1  UNL1        0.0217
     19 C         139.0465  143.8608  156.6876 C.3     1  UNL1        0.0724
     20 N         138.1306  142.9757  155.8954 N.3     1  UNL1       -0.2739
     21 C         137.5691  141.7306  156.5156 C.3     1  UNL1        0.0724
     22 C         137.9235  141.3708  157.9280 C.3     1  UNL1        0.0217
     23 C         137.7762  143.3356  154.4830 C.3     1  UNL1        0.0576
     24 C         136.8173  143.9330  153.4963 C.3     1  UNL1        0.0173
     25 C         138.1211  143.3614  153.0235 C.3     1  UNL1        0.0173
     26 C         142.1447  142.6017  164.3510 C.ar    1  UNL1       -0.0040
     27 C         143.3837  142.2516  163.5815 C.ar    1  UNL1       -0.0003
     28 C         144.1503  143.3241  162.8660 C.ar    1  UNL1       -0.0000
     29 C         143.6778  144.7467  162.9199 C.ar    1  UNL1       -0.0000
     30 C         142.4387  145.0968  163.6894 C.ar    1  UNL1       -0.0000
     31 C         141.6722  144.0243  164.4050 C.ar    1  UNL1       -0.0003
     32 C         141.7325  141.1693  166.4790 C.3     1  UNL1        0.0289
     33 C         142.9347  140.3161  166.7565 C.3     1  UNL1        0.0364
     34 O         144.0339  137.9653  166.8807 O.3     1  UNL1       -0.3820
     35 C         142.8973  138.8470  166.4557 C.3     1  UNL1        0.1375
     36 H         143.8525  137.0514  166.6110 H       1  UNL1        0.2104
@<TRIPOS>BOND
     1    34    35    1
     2    35    33    1
     3    33    32    1
     4    32     1    1
     5     1     2    2
     6     2     3    1
     7     3     4   ar
     8     4     5   ar
     9     5     6   ar
    10     6     7    1
    11     6     8   ar
    12     8     9   ar
    13     2    11    1
    14    11    12   ar
    15    12    13   ar
    16    13    14   ar
    17    14    17    1
    18    17    18    1
    19    18    19    1
    20    19    20    1
    21    20    23    1
    22    23    24    1
    23    24    25    1
    24    20    21    1
    25    21    22    1
    26    14    15   ar
    27    15    16   ar
    28     1    26    1
    29    26    27   ar
    30    27    28   ar
    31    28    29   ar
    32    29    30   ar
    33    30    31   ar
    34     9     3   ar
    35    16    11   ar
    36    31    26   ar
    37    22    17    1
    38    25    23    1
    39    34    36    1
    40     7    10    1
@<TRIPOS>MOLECULE
*****
 36 40 0 0 0
SMALL
GASTEIGER

@<TRIPOS>ATOM
      1 C         139.9232  141.5185  160.8115 C.2     1  UNL1       -0.0221
      2 C         140.4161  141.5423  159.3950 C.2     1  UNL1       -0.0040
      3 C         140.5351  142.8468  158.6641 C.ar    1  UNL1       -0.0001
      4 C         139.4411  143.2908  157.7391 C.ar    1  UNL1        0.0031
      5 C         139.5602  144.5952  157.0082 C.ar    1  UNL1        0.0366
      6 C         140.7733  145.4557  157.2025 C.ar    1  UNL1        0.1337
      7 O         140.8924  146.7603  156.4716 O.3     1  UNL1       -0.5055
      8 C         141.8674  145.0118  158.1276 C.ar    1  UNL1        0.0366
      9 C         141.7483  143.7073  158.8584 C.ar    1  UNL1        0.0031
     10 H         140.2089  147.0376  155.8938 H       1  UNL1        0.2922
     11 C         140.7899  140.2616  158.7093 C.ar    1  UNL1       -0.0003
     12 C         142.1544  139.6726  158.9126 C.ar    1  UNL1       -0.0003
     13 C         142.5282  138.3920  158.2269 C.ar    1  UNL1       -0.0043
     14 C         141.5376  137.7003  157.3380 C.ar    1  UNL1       -0.0224
     15 C         140.1730  138.2893  157.1347 C.ar    1  UNL1       -0.0043
     16 C         139.7992  139.5699  157.8204 C.ar    1  UNL1       -0.0003
     17 C         141.9114  136.4197  156.6523 C.3     1  UNL1        0.0251
     18 C         141.1071  135.9320  155.4839 C.3     1  UNL1        0.0217
     19 C         141.4809  134.6513  154.7982 C.3     1  UNL1        0.0724
     20 N         142.6591  133.8583  155.2809 N.3     1  UNL1       -0.2739
     21 C         143.4635  134.3460  156.4493 C.3     1  UNL1        0.0724
     22 C         143.0897  135.6267  157.1350 C.3     1  UNL1        0.0217
     23 C         143.0329  132.5777  154.5952 C.3     1  UNL1        0.0576
     24 C         142.9936  131.6929  153.3847 C.3     1  UNL1        0.0173
     25 C         143.7197  131.2444  154.6182 C.3     1  UNL1        0.0173
     26 C         139.8041  140.2139  161.5424 C.ar    1  UNL1       -0.0040
     27 C         140.8918  139.7765  162.4780 C.ar    1  UNL1       -0.0003
     28 C         140.7727  138.4720  163.2089 C.ar    1  UNL1       -0.0000
     29 C         139.5659  137.6050  163.0040 C.ar    1  UNL1       -0.0000
     30 C         138.4783  138.0424  162.0683 C.ar    1  UNL1       -0.0000
     31 C         138.5974  139.3469  161.3375 C.ar    1  UNL1       -0.0003
     32 C         139.5494  142.7991  161.4972 C.3     1  UNL1        0.0289
     33 C         138.1320  143.0323  161.9296 C.3     1  UNL1        0.0364
     34 O         136.5880  141.3676  163.1923 O.3     1  UNL1       -0.3820
     35 C         137.6336  142.4428  163.2156 C.3     1  UNL1        0.1375
     36 H         136.3798  141.0993  164.1009 H       1  UNL1        0.2104
@<TRIPOS>BOND
     1    34    35    1
     2    35    33    1
     3    33    32    1
     4    32     1    1
     5     1     2    2
     6     2     3    1
     7     3     4   ar
     8     4     5   ar
     9     5     6   ar
    10     6     7    1
    11     6     8   ar
    12     8     9   ar
    13     2    11    1
    14    11    12   ar
    15    12    13   ar
    16    13    14   ar
    17    14    17    1
    18    17    18    1
    19    18    19    1
    20    19    20    1
    21    20    23    1
    22    23    24    1
    23    24    25    1
    24    20    21    1
    25    21    22    1
    26    14    15   ar
    27    15    16   ar
    28     1    26    1
    29    26    27   ar
    30    27    28   ar
    31    28    29   ar
    32    29    30   ar
    33    30    31   ar
    34     9     3   ar
    35    16    11   ar
    36    31    26   ar
    37    22    17    1
    38    25    23    1
    39    34    36    1
    40     7    10    1
@<TRIPOS>MOLECULE
*****
 36 40 0 0 0
SMALL
GASTEIGER

@<TRIPOS>ATOM
      1 C         140.9772  142.0223  165.6326 C.2     1  UNL1       -0.0221
      2 C         140.5898  140.8292  164.8101 C.2     1  UNL1       -0.0040
      3 C         139.7231  139.7584  165.4037 C.ar    1  UNL1       -0.0001
      4 C         138.8102  140.0817  166.5491 C.ar    1  UNL1        0.0031
      5 C         137.9435  139.0109  167.1426 C.ar    1  UNL1        0.0366
      6 C         137.9898  137.6169  166.5907 C.ar    1  UNL1        0.1337
      7 O         137.1231  136.5461  167.1843 O.3     1  UNL1       -0.5055
      8 C         138.9027  137.2937  165.4453 C.ar    1  UNL1        0.0366
      9 C         139.7693  138.3644  164.8518 C.ar    1  UNL1        0.0031
     10 H         136.5528  136.7480  167.8998 H       1  UNL1        0.2922
     11 C         141.0691  140.7069  163.3940 C.ar    1  UNL1       -0.0003
     12 C         142.4278  140.1392  163.1085 C.ar    1  UNL1       -0.0003
     13 C         142.9071  140.0169  161.6924 C.ar    1  UNL1       -0.0043
     14 C         142.0277  140.4623  160.5618 C.ar    1  UNL1       -0.0224
     15 C         140.6689  141.0301  160.8473 C.ar    1  UNL1       -0.0043
     16 C         140.1896  141.1524  162.2634 C.ar    1  UNL1       -0.0003
     17 C         142.5069  140.3400  159.1457 C.3     1  UNL1        0.0251
     18 C         141.5767  139.8426  158.0794 C.3     1  UNL1        0.0217
     19 C         142.0560  139.7203  156.6633 C.3     1  UNL1        0.0724
     20 N         143.4655  140.0954  156.3135 N.3     1  UNL1       -0.2739
     21 C         144.3959  140.5929  157.3799 C.3     1  UNL1        0.0724
     22 C         143.9166  140.7152  158.7960 C.3     1  UNL1        0.0217
     23 C         143.9448  139.9731  154.8974 C.3     1  UNL1        0.0576
     24 C         143.6642  139.6941  153.4506 C.3     1  UNL1        0.0173
     25 C         145.0555  140.0403  153.8916 C.3     1  UNL1        0.0173
     26 C         141.8439  143.0931  165.0390 C.ar    1  UNL1       -0.0040
     27 C         143.3350  143.0162  165.1824 C.ar    1  UNL1       -0.0003
     28 C         144.2017  144.0870  164.5888 C.ar    1  UNL1       -0.0000
     29 C         143.5772  145.2346  163.8519 C.ar    1  UNL1       -0.0000
     30 C         142.0860  145.3114  163.7086 C.ar    1  UNL1       -0.0000
     31 C         141.2194  144.2407  164.3022 C.ar    1  UNL1       -0.0003
     32 C         140.4979  142.1446  167.0487 C.3     1  UNL1        0.0289
     33 C         141.4839  142.1211  168.1789 C.3     1  UNL1        0.0364
     34 O         139.9850  143.5216  169.7732 O.3     1  UNL1       -0.3820
     35 C         141.3469  143.0919  169.3141 C.3     1  UNL1        0.1375
     36 H         140.0744  144.1464  170.5097 H       1  UNL1        0.2104
@<TRIPOS>BOND
     1    34    35    1
     2    35    33    1
     3    33    32    1
     4    32     1    1
     5     1     2    2
     6     2     3    1
     7     3     4   ar
     8     4     5   ar
     9     5     6   ar
    10     6     7    1
    11     6     8   ar
    12     8     9   ar
    13     2    11    1
    14    11    12   ar
    15    12    13   ar
    16    13    14   ar
    17    14    17    1
    18    17    18    1
    19    18    19    1
    20    19    20    1
    21    20    23    1
    22    23    24    1
    23    24    25    1
    24    20    21    1
    25    21    22    1
    26    14    15   ar
    27    15    16   ar
    28     1    26    1
    29    26    27   ar
    30    27    28   ar
    31    28    29   ar
    32    29    30   ar
    33    30    31   ar
    34     9     3   ar
    35    16    11   ar
    36    31    26   ar
    37    22    17    1
    38    25    23    1
    39    34    36    1
    40     7    10    1
@<TRIPOS>MOLECULE
*****
 36 40 0 0 0
SMALL
GASTEIGER

@<TRIPOS>ATOM
      1 C         141.5986  140.4360  163.7650 C.2     1  UNL1       -0.0221
      2 C         140.2507  139.8766  163.4184 C.2     1  UNL1       -0.0040
      3 C         139.4153  139.2217  164.4783 C.ar    1  UNL1       -0.0001
      4 C         138.6819  140.0622  165.4810 C.ar    1  UNL1        0.0031
      5 C         137.8466  139.4073  166.5408 C.ar    1  UNL1        0.0366
      6 C         137.7447  137.9119  166.5980 C.ar    1  UNL1        0.1337
      7 O         136.9093  137.2570  167.6579 O.3     1  UNL1       -0.5055
      8 C         138.4782  137.0713  165.5953 C.ar    1  UNL1        0.0366
      9 C         139.3135  137.7262  164.5354 C.ar    1  UNL1        0.0031
     10 H         136.4511  137.7821  168.2843 H       1  UNL1        0.2922
     11 C         139.7381  139.9720  162.0119 C.ar    1  UNL1       -0.0003
     12 C         139.9602  138.8391  161.0543 C.ar    1  UNL1       -0.0003
     13 C         139.4476  138.9344  159.6478 C.ar    1  UNL1       -0.0043
     14 C         138.7129  140.1627  159.1990 C.ar    1  UNL1       -0.0224
     15 C         138.4908  141.2957  160.1567 C.ar    1  UNL1       -0.0043
     16 C         139.0034  141.2004  161.5631 C.ar    1  UNL1       -0.0003
     17 C         138.2003  140.2581  157.7925 C.3     1  UNL1        0.0251
     18 C         138.9138  139.5424  156.6841 C.3     1  UNL1        0.0217
     19 C         138.4012  139.6378  155.2776 C.3     1  UNL1        0.0724
     20 N         137.1751  140.4489  154.9796 N.3     1  UNL1       -0.2739
     21 C         136.4616  141.1647  156.0881 C.3     1  UNL1        0.0724
     22 C         136.9742  141.0693  157.4945 C.3     1  UNL1        0.0217
     23 C         136.6625  140.5443  153.5731 C.3     1  UNL1        0.0576
     24 C         136.2068  141.3748  152.4101 C.3     1  UNL1        0.0173
     25 C         136.2304  139.8790  152.3001 C.3     1  UNL1        0.0173
     26 C         142.4340  141.0909  162.7050 C.ar    1  UNL1       -0.0040
     27 C         143.2652  140.2519  161.7804 C.ar    1  UNL1       -0.0003
     28 C         144.1006  140.9068  160.7205 C.ar    1  UNL1       -0.0000
     29 C         144.1046  142.4007  160.5854 C.ar    1  UNL1       -0.0000
     30 C         143.2733  143.2397  161.5100 C.ar    1  UNL1       -0.0000
     31 C         142.4380  142.5848  162.5698 C.ar    1  UNL1       -0.0003
     32 C         142.1112  140.3406  165.1714 C.3     1  UNL1        0.0289
     33 C         143.2895  139.4661  165.4825 C.3     1  UNL1        0.0364
     34 O         144.3297  137.5984  166.9590 O.3     1  UNL1       -0.3820
     35 C         143.3444  138.7152  166.7799 C.3     1  UNL1        0.1375
     36 H         144.2339  137.2222  167.8479 H       1  UNL1        0.2104
@<TRIPOS>BOND
     1    34    35    1
     2    35    33    1
     3    33    32    1
     4    32     1    1
     5     1     2    2
     6     2     3    1
     7     3     4   ar
     8     4     5   ar
     9     5     6   ar
    10     6     7    1
    11     6     8   ar
    12     8     9   ar
    13     2    11    1
    14    11    12   ar
    15    12    13   ar
    16    13    14   ar
    17    14    17    1
    18    17    18    1
    19    18    19    1
    20    19    20    1
    21    20    23    1
    22    23    24    1
    23    24    25    1
    24    20    21    1
    25    21    22    1
    26    14    15   ar
    27    15    16   ar
    28     1    26    1
    29    26    27   ar
    30    27    28   ar
    31    28    29   ar
    32    29    30   ar
    33    30    31   ar
    34     9     3   ar
    35    16    11   ar
    36    31    26   ar
    37    22    17    1
    38    25    23    1
    39    34    36    1
    40     7    10    1
@<TRIPOS>MOLECULE
*****
 36 40 0 0 0
SMALL
GASTEIGER

@<TRIPOS>ATOM
      1 C         141.1518  141.7381  165.4719 C.2     1  UNL1       -0.0221
      2 C         141.7256  140.6485  164.6155 C.2     1  UNL1       -0.0040
      3 C         142.8295  139.7814  165.1447 C.ar    1  UNL1       -0.0001
      4 C         144.2066  139.8792  164.5582 C.ar    1  UNL1        0.0031
      5 C         145.3103  139.0122  165.0873 C.ar    1  UNL1        0.0366
      6 C         145.0370  138.0475  166.2030 C.ar    1  UNL1        0.1337
      7 O         146.1408  137.1805  166.7321 O.3     1  UNL1       -0.5055
      8 C         143.6599  137.9497  166.7894 C.ar    1  UNL1        0.0366
      9 C         142.5561  138.8167  166.2603 C.ar    1  UNL1        0.0031
     10 H         147.0011  137.2415  166.3657 H       1  UNL1        0.2922
     11 C         141.1957  140.4258  163.2301 C.ar    1  UNL1       -0.0003
     12 C         140.1671  139.3625  162.9824 C.ar    1  UNL1       -0.0003
     13 C         139.6372  139.1398  161.5969 C.ar    1  UNL1       -0.0043
     14 C         140.1358  139.9804  160.4591 C.ar    1  UNL1       -0.0224
     15 C         141.1645  141.0438  160.7067 C.ar    1  UNL1       -0.0043
     16 C         141.6944  141.2664  162.0922 C.ar    1  UNL1       -0.0003
     17 C         139.6059  139.7577  159.0736 C.3     1  UNL1        0.0251
     18 C         138.6362  140.7335  158.4757 C.3     1  UNL1        0.0217
     19 C         138.1063  140.5108  157.0902 C.3     1  UNL1        0.0724
     20 N         138.5461  139.3124  156.3026 N.3     1  UNL1       -0.2739
     21 C         139.5158  138.3365  156.9005 C.3     1  UNL1        0.0724
     22 C         140.0458  138.5592  158.2860 C.3     1  UNL1        0.0217
     23 C         138.0161  139.0897  154.9171 C.3     1  UNL1        0.0576
     24 C         137.9719  139.4693  153.4667 C.3     1  UNL1        0.0173
     25 C         137.1425  138.3243  153.9679 C.3     1  UNL1        0.0173
     26 C         140.0479  142.6051  164.9428 C.ar    1  UNL1       -0.0040
     27 C         140.3519  143.9887  164.4495 C.ar    1  UNL1       -0.0003
     28 C         139.2481  144.8556  163.9205 C.ar    1  UNL1       -0.0000
     29 C         137.8403  144.3389  163.8846 C.ar    1  UNL1       -0.0000
     30 C         137.5364  142.9554  164.3778 C.ar    1  UNL1       -0.0000
     31 C         138.6402  142.0884  164.9069 C.ar    1  UNL1       -0.0003
     32 C         141.6817  141.9608  166.8574 C.3     1  UNL1        0.0289
     33 C         140.7987  142.5620  167.9105 C.3     1  UNL1        0.0364
     34 O         140.8061  144.0310  170.0534 O.3     1  UNL1       -0.3820
     35 C         141.3573  142.8795  169.2659 C.3     1  UNL1        0.1375
     36 H         141.2746  144.0974  170.9001 H       1  UNL1        0.2104
@<TRIPOS>BOND
     1    34    35    1
     2    35    33    1
     3    33    32    1
     4    32     1    1
     5     1     2    2
     6     2     3    1
     7     3     4   ar
     8     4     5   ar
     9     5     6   ar
    10     6     7    1
    11     6     8   ar
    12     8     9   ar
    13     2    11    1
    14    11    12   ar
    15    12    13   ar
    16    13    14   ar
    17    14    17    1
    18    17    18    1
    19    18    19    1
    20    19    20    1
    21    20    23    1
    22    23    24    1
    23    24    25    1
    24    20    21    1
    25    21    22    1
    26    14    15   ar
    27    15    16   ar
    28     1    26    1
    29    26    27   ar
    30    27    28   ar
    31    28    29   ar
    32    29    30   ar
    33    30    31   ar
    34     9     3   ar
    35    16    11   ar
    36    31    26   ar
    37    22    17    1
    38    25    23    1
    39    34    36    1
    40     7    10    1
@<TRIPOS>MOLECULE
*****
 36 40 0 0 0
SMALL
GASTEIGER

@<TRIPOS>ATOM
      1 C         142.0953  140.5131  162.2323 C.2     1  UNL1       -0.0221
      2 C         140.6062  140.3532  162.1480 C.2     1  UNL1       -0.0040
      3 C         139.8329  139.8873  163.3459 C.ar    1  UNL1       -0.0001
      4 C         139.6010  138.4217  163.5654 C.ar    1  UNL1        0.0031
      5 C         138.8277  137.9559  164.7632 C.ar    1  UNL1        0.0366
      6 C         138.2862  138.9557  165.7416 C.ar    1  UNL1        0.1337
      7 O         137.5129  138.4899  166.9396 O.3     1  UNL1       -0.5055
      8 C         138.5181  140.4213  165.5221 C.ar    1  UNL1        0.0366
      9 C         139.2914  140.8871  164.3243 C.ar    1  UNL1        0.0031
     10 H         137.3680  137.5743  167.0767 H       1  UNL1        0.2922
     11 C         139.8905  140.6592  160.8657 C.ar    1  UNL1       -0.0003
     12 C         139.6557  139.5715  159.8599 C.ar    1  UNL1       -0.0003
     13 C         138.9399  139.8774  158.5777 C.ar    1  UNL1       -0.0043
     14 C         138.4590  141.2710  158.3013 C.ar    1  UNL1       -0.0224
     15 C         138.6937  142.3588  159.3072 C.ar    1  UNL1       -0.0043
     16 C         139.4095  142.0529  160.5894 C.ar    1  UNL1       -0.0003
     17 C         137.7432  141.5770  157.0191 C.3     1  UNL1        0.0251
     18 C         137.2379  140.4584  156.1569 C.3     1  UNL1        0.0217
     19 C         136.5221  140.7644  154.8747 C.3     1  UNL1        0.0724
     20 N         136.3117  142.1889  154.4546 N.3     1  UNL1       -0.2739
     21 C         136.8170  143.3075  155.3168 C.3     1  UNL1        0.0724
     22 C         137.5328  143.0016  156.5991 C.3     1  UNL1        0.0217
     23 C         135.5959  142.4948  153.1724 C.3     1  UNL1        0.0576
     24 C         135.4062  143.3668  151.9668 C.3     1  UNL1        0.0173
     25 C         134.5460  142.1527  152.1572 C.3     1  UNL1        0.0173
     26 C         142.8686  140.9790  161.0344 C.ar    1  UNL1       -0.0040
     27 C         143.1585  142.4391  160.8502 C.ar    1  UNL1       -0.0003
     28 C         143.9318  142.9049  159.6523 C.ar    1  UNL1       -0.0000
     29 C         144.4153  141.9106  158.6386 C.ar    1  UNL1       -0.0000
     30 C         144.1254  140.4505  158.8228 C.ar    1  UNL1       -0.0000
     31 C         143.3521  139.9847  160.0207 C.ar    1  UNL1       -0.0003
     32 C         142.8110  140.2072  163.5145 C.3     1  UNL1        0.0289
     33 C         143.8418  141.1598  164.0438 C.3     1  UNL1        0.0364
     34 O         146.2418  141.7572  163.2481 O.3     1  UNL1       -0.3820
     35 C         145.2993  140.8197  163.9429 C.3     1  UNL1        0.1375
     36 H         147.1393  141.3898  163.2720 H       1  UNL1        0.2104
@<TRIPOS>BOND
     1    34    35    1
     2    35    33    1
     3    33    32    1
     4    32     1    1
     5     1     2    2
     6     2     3    1
     7     3     4   ar
     8     4     5   ar
     9     5     6   ar
    10     6     7    1
    11     6     8   ar
    12     8     9   ar
    13     2    11    1
    14    11    12   ar
    15    12    13   ar
    16    13    14   ar
    17    14    17    1
    18    17    18    1
    19    18    19    1
    20    19    20    1
    21    20    23    1
    22    23    24    1
    23    24    25    1
    24    20    21    1
    25    21    22    1
    26    14    15   ar
    27    15    16   ar
    28     1    26    1
    29    26    27   ar
    30    27    28   ar
    31    28    29   ar
    32    29    30   ar
    33    30    31   ar
    34     9     3   ar
    35    16    11   ar
    36    31    26   ar
    37    22    17    1
    38    25    23    1
    39    34    36    1
    40     7    10    1
@<TRIPOS>MOLECULE
*****
 36 40 0 0 0
SMALL
GASTEIGER

@<TRIPOS>ATOM
      1 C         143.2298  139.2032  156.0788 C.2     1  UNL1       -0.0221
      2 C         142.5929  137.9996  156.7076 C.2     1  UNL1       -0.0040
      3 C         142.5606  136.6953  155.9674 C.ar    1  UNL1       -0.0001
      4 C         141.3598  136.3282  155.1469 C.ar    1  UNL1        0.0031
      5 C         141.3274  135.0240  154.4067 C.ar    1  UNL1        0.0366
      6 C         142.4959  134.0868  154.4871 C.ar    1  UNL1        0.1337
      7 O         142.4635  132.7826  153.7469 O.3     1  UNL1       -0.5055
      8 C         143.6967  134.4539  155.3076 C.ar    1  UNL1        0.0366
      9 C         143.7290  135.7581  156.0478 C.ar    1  UNL1        0.0031
     10 H         141.7134  132.5533  153.2343 H       1  UNL1        0.2922
     11 C         141.9884  138.1001  158.0767 C.ar    1  UNL1       -0.0003
     12 C         140.5244  138.3880  158.2309 C.ar    1  UNL1       -0.0003
     13 C         139.9199  138.4885  159.6000 C.ar    1  UNL1       -0.0043
     14 C         140.7794  138.3012  160.8150 C.ar    1  UNL1       -0.0224
     15 C         142.2435  138.0134  160.6608 C.ar    1  UNL1       -0.0043
     16 C         142.8480  137.9128  159.2917 C.ar    1  UNL1       -0.0003
     17 C         140.1749  138.4018  162.1841 C.3     1  UNL1        0.0251
     18 C         140.6092  137.4589  163.2668 C.3     1  UNL1        0.0217
     19 C         140.0047  137.5595  164.6359 C.3     1  UNL1        0.0724
     20 N         138.9658  138.6028  164.9223 N.3     1  UNL1       -0.2739
     21 C         138.5314  139.5457  163.8395 C.3     1  UNL1        0.0724
     22 C         139.1359  139.4452  162.4704 C.3     1  UNL1        0.0217
     23 C         138.3613  138.7034  166.2914 C.3     1  UNL1        0.0576
     24 C         138.3370  139.3199  167.6586 C.3     1  UNL1        0.0173
     25 C         137.3385  138.2610  167.2955 C.3     1  UNL1        0.0173
     26 C         143.2622  140.5075  156.8190 C.ar    1  UNL1       -0.0040
     27 C         142.0856  141.4356  156.7551 C.ar    1  UNL1       -0.0003
     28 C         142.1180  142.7398  157.4953 C.ar    1  UNL1       -0.0000
     29 C         143.3271  143.1159  158.2994 C.ar    1  UNL1       -0.0000
     30 C         144.5038  142.1879  158.3633 C.ar    1  UNL1       -0.0000
     31 C         144.4713  140.8837  157.6231 C.ar    1  UNL1       -0.0003
     32 C         143.8344  139.1027  154.7097 C.3     1  UNL1        0.0289
     33 C         143.1516  139.7461  153.5392 C.3     1  UNL1        0.0364
     34 O         142.7410  137.6114  152.1165 O.3     1  UNL1       -0.3820
     35 C         142.2630  138.9301  152.6478 C.3     1  UNL1        0.1375
     36 H         142.0503  137.2169  151.5614 H       1  UNL1        0.2104
@<TRIPOS>BOND
     1    34    35    1
     2    35    33    1
     3    33    32    1
     4    32     1    1
     5     1     2    2
     6     2     3    1
     7     3     4   ar
     8     4     5   ar
     9     5     6   ar
    10     6     7    1
    11     6     8   ar
    12     8     9   ar
    13     2    11    1
    14    11    12   ar
    15    12    13   ar
    16    13    14   ar
    17    14    17    1
    18    17    18    1
    19    18    19    1
    20    19    20    1
    21    20    23    1
    22    23    24    1
    23    24    25    1
    24    20    21    1
    25    21    22    1
    26    14    15   ar
    27    15    16   ar
    28     1    26    1
    29    26    27   ar
    30    27    28   ar
    31    28    29   ar
    32    29    30   ar
    33    30    31   ar
    34     9     3   ar
    35    16    11   ar
    36    31    26   ar
    37    22    17    1
    38    25    23    1
    39    34    36    1
    40     7    10    1
