@<TRIPOS>MOLECULE
*****
 29 32 0 0 0
SMALL
GASTEIGER

@<TRIPOS>ATOM
      1 N         141.3544  143.9088  163.6634 N.3     1  UNL1       -0.2641
      2 C         140.2829  143.2547  164.4845 C.3     1  UNL1        0.0730
      3 C         140.6434  142.5281  165.7463 C.3     1  UNL1        0.0245
      4 C         142.0754  142.4554  166.1869 C.3     1  UNL1        0.0577
      5 C         143.1469  143.1095  165.3658 C.3     1  UNL1        0.1808
      6 F         144.5789  143.0368  165.8065 F       1  UNL1       -0.2354
      7 C         142.7863  143.8361  164.1041 C.3     1  UNL1        0.1084
      8 C         142.4359  141.7287  167.4487 C.ar    1  UNL1       -0.0196
      9 C         143.0824  142.4689  168.5819 C.ar    1  UNL1       -0.0011
     10 C         143.4429  141.7423  169.8436 C.ar    1  UNL1        0.0363
     11 C         143.1568  140.2754  169.9721 C.ar    1  UNL1        0.1337
     12 O         143.5173  139.5487  171.2339 O.3     1  UNL1       -0.5055
     13 C         142.5102  139.5352  168.8389 C.ar    1  UNL1        0.0363
     14 C         142.1498  140.2618  167.5773 C.ar    1  UNL1       -0.0011
     15 H         143.9211  140.0111  171.9417 H       1  UNL1        0.2922
     16 N         140.9986  145.4068  160.1004 N.am    1  UNL1       -0.2743
     17 C         139.8798  146.1005  160.8196 C.3     1  UNL1        0.0957
     18 C         139.8769  145.6238  162.2419 C.3     1  UNL1        0.0468
     19 C         140.9939  144.6354  162.4017 C.3     1  UNL1        0.1368
     20 C         141.6871  144.5013  161.0783 C.2     1  UNL1        0.2404
     21 O         142.8624  143.6170  160.7842 O.2     1  UNL1       -0.2734
     22 C         141.3645  145.5868  158.6570 C.3     1  UNL1        0.1202
     23 C         137.2658  144.6301  154.3809 C.3     1  UNL1        0.0310
     24 C         138.2904  144.8693  155.4499 C.ar    1  UNL1       -0.0219
     25 C         138.8706  146.2394  155.6396 C.ar    1  UNL1       -0.0045
     26 C         139.8953  146.4786  156.7087 C.ar    1  UNL1       -0.0029
     27 C         140.3398  145.3476  157.5880 C.ar    1  UNL1       -0.0024
     28 C         139.7597  143.9775  157.3983 C.ar    1  UNL1       -0.0029
     29 C         138.7350  143.7383  156.3293 C.ar    1  UNL1       -0.0045
@<TRIPOS>BOND
     1    23    24    1
     2    24    25   ar
     3    25    26   ar
     4    26    27   ar
     5    27    22    1
     6    22    16    1
     7    16    17    1
     8    17    18    1
     9    18    19    1
    10    19     1    1
    11     1     2    1
    12     2     3    1
    13     3     4    1
    14     4     8    1
    15     8     9   ar
    16     9    10   ar
    17    10    11   ar
    18    11    12    1
    19    11    13   ar
    20    13    14   ar
    21     4     5    1
    22     5     6    1
    23     5     7    1
    24    19    20    1
    25    20    21    2
    26    27    28   ar
    27    28    29   ar
    28    29    24   ar
    29    20    16   am
    30     7     1    1
    31    14     8   ar
    32    12    15    1
@<TRIPOS>MOLECULE
*****
 29 32 0 0 0
SMALL
GASTEIGER

@<TRIPOS>ATOM
      1 N         141.2339  138.8167  162.2920 N.3     1  UNL1       -0.2641
      2 C         141.2967  137.6534  163.2368 C.3     1  UNL1        0.0730
      3 C         141.2845  137.8889  164.7182 C.3     1  UNL1        0.0245
      4 C         141.2094  139.2877  165.2547 C.3     1  UNL1        0.0577
      5 C         141.1466  140.4510  164.3098 C.3     1  UNL1        0.1808
      6 F         141.0715  141.8498  164.8463 F       1  UNL1       -0.2354
      7 C         141.1588  140.2155  162.8285 C.3     1  UNL1        0.1084
      8 C         141.1971  139.5231  166.7361 C.ar    1  UNL1       -0.0196
      9 C         142.4633  139.3837  167.5281 C.ar    1  UNL1       -0.0011
     10 C         142.4510  139.6192  169.0095 C.ar    1  UNL1        0.0363
     11 C         141.1725  139.9941  169.6987 C.ar    1  UNL1        0.1337
     12 O         141.1603  140.2295  171.1801 O.3     1  UNL1       -0.5055
     13 C         139.9064  140.1334  168.9066 C.ar    1  UNL1        0.0363
     14 C         139.9186  139.8980  167.4254 C.ar    1  UNL1       -0.0011
     15 H         141.9512  140.1425  171.6749 H       1  UNL1        0.2922
     16 N         141.9638  137.9507  158.5795 N.am    1  UNL1       -0.2743
     17 C         140.5663  138.4871  158.4826 C.3     1  UNL1        0.0957
     18 C         140.1228  138.8769  159.8616 C.3     1  UNL1        0.0468
     19 C         141.2462  138.5813  160.8107 C.3     1  UNL1        0.1368
     20 C         142.3839  138.0089  160.0183 C.2     1  UNL1        0.2404
     21 O         143.7092  137.5715  160.5681 O.2     1  UNL1       -0.2734
     22 C         142.7951  137.4449  157.4380 C.3     1  UNL1        0.1202
     23 C         141.7061  132.0260  155.1036 C.3     1  UNL1        0.0310
     24 C         141.9783  133.3807  155.6872 C.ar    1  UNL1       -0.0219
     25 C         141.2378  134.5805  155.1753 C.ar    1  UNL1       -0.0045
     26 C         141.5101  135.9353  155.7589 C.ar    1  UNL1       -0.0029
     27 C         142.5229  136.0902  156.8544 C.ar    1  UNL1       -0.0024
     28 C         143.2634  134.8904  157.3663 C.ar    1  UNL1       -0.0029
     29 C         142.9911  133.5357  156.7828 C.ar    1  UNL1       -0.0045
@<TRIPOS>BOND
     1    23    24    1
     2    24    25   ar
     3    25    26   ar
     4    26    27   ar
     5    27    22    1
     6    22    16    1
     7    16    17    1
     8    17    18    1
     9    18    19    1
    10    19     1    1
    11     1     2    1
    12     2     3    1
    13     3     4    1
    14     4     8    1
    15     8     9   ar
    16     9    10   ar
    17    10    11   ar
    18    11    12    1
    19    11    13   ar
    20    13    14   ar
    21     4     5    1
    22     5     6    1
    23     5     7    1
    24    19    20    1
    25    20    21    2
    26    27    28   ar
    27    28    29   ar
    28    29    24   ar
    29    20    16   am
    30     7     1    1
    31    14     8   ar
    32    12    15    1
@<TRIPOS>MOLECULE
*****
 29 32 0 0 0
SMALL
GASTEIGER

@<TRIPOS>ATOM
      1 N         141.2228  138.8056  162.2557 N.3     1  UNL1       -0.2641
      2 C         141.3393  137.6456  163.1995 C.3     1  UNL1        0.0730
      3 C         141.3292  137.8802  164.6811 C.3     1  UNL1        0.0245
      4 C         141.2027  139.2748  165.2188 C.3     1  UNL1        0.0577
      5 C         141.0862  140.4349  164.2749 C.3     1  UNL1        0.1808
      6 F         140.9596  141.8294  164.8127 F       1  UNL1       -0.2354
      7 C         141.0963  140.2002  162.7934 C.3     1  UNL1        0.1084
      8 C         141.1926  139.5094  166.7003 C.ar    1  UNL1       -0.0196
      9 C         139.9183  139.8983  167.3894 C.ar    1  UNL1       -0.0011
     10 C         139.9082  140.1329  168.8710 C.ar    1  UNL1        0.0363
     11 C         141.1725  139.9785  169.6633 C.ar    1  UNL1        0.1337
     12 O         141.1625  140.2131  171.1448 O.3     1  UNL1       -0.5055
     13 C         142.4468  139.5896  168.9741 C.ar    1  UNL1        0.0363
     14 C         142.4569  139.3550  167.4927 C.ar    1  UNL1       -0.0011
     15 H         140.3664  140.4560  171.5753 H       1  UNL1        0.2922
     16 N         141.9476  137.9427  158.5415 N.am    1  UNL1       -0.2743
     17 C         140.5493  138.4775  158.4473 C.3     1  UNL1        0.0957
     18 C         140.1075  138.8658  159.8273 C.3     1  UNL1        0.0468
     19 C         141.2329  138.5711  160.7743 C.3     1  UNL1        0.1368
     20 C         142.3700  138.0006  159.9797 C.2     1  UNL1        0.2404
     21 O         143.6968  137.5645  160.5270 O.2     1  UNL1       -0.2734
     22 C         142.7776  137.4387  157.3983 C.3     1  UNL1        0.1202
     23 C         141.7759  131.9681  155.1468 C.3     1  UNL1        0.0310
     24 C         142.0264  133.3357  155.7097 C.ar    1  UNL1       -0.0219
     25 C         143.0218  133.5205  156.8165 C.ar    1  UNL1       -0.0045
     26 C         143.2722  134.8882  157.3793 C.ar    1  UNL1       -0.0029
     27 C         142.5272  136.0710  156.8354 C.ar    1  UNL1       -0.0024
     28 C         141.5318  135.8862  155.7287 C.ar    1  UNL1       -0.0029
     29 C         141.2814  134.5185  155.1658 C.ar    1  UNL1       -0.0045
@<TRIPOS>BOND
     1    23    24    1
     2    24    25   ar
     3    25    26   ar
     4    26    27   ar
     5    27    22    1
     6    22    16    1
     7    16    17    1
     8    17    18    1
     9    18    19    1
    10    19     1    1
    11     1     2    1
    12     2     3    1
    13     3     4    1
    14     4     8    1
    15     8     9   ar
    16     9    10   ar
    17    10    11   ar
    18    11    12    1
    19    11    13   ar
    20    13    14   ar
    21     4     5    1
    22     5     6    1
    23     5     7    1
    24    19    20    1
    25    20    21    2
    26    27    28   ar
    27    28    29   ar
    28    29    24   ar
    29    20    16   am
    30     7     1    1
    31    14     8   ar
    32    12    15    1
@<TRIPOS>MOLECULE
*****
 29 32 0 0 0
SMALL
GASTEIGER

@<TRIPOS>ATOM
      1 N         143.3824  140.7688  162.9327 N.3     1  UNL1       -0.2641
      2 C         142.6128  141.8635  163.6104 C.3     1  UNL1        0.0730
      3 C         142.4380  141.8461  165.1001 C.3     1  UNL1        0.0245
      4 C         143.0327  140.7339  165.9121 C.3     1  UNL1        0.0577
      5 C         143.8024  139.6391  165.2344 C.3     1  UNL1        0.1808
      6 F         144.3972  138.5270  166.0464 F       1  UNL1       -0.2354
      7 C         143.9772  139.6567  163.7447 C.3     1  UNL1        0.1084
      8 C         142.8579  140.7165  167.4018 C.ar    1  UNL1       -0.0196
      9 C         142.3941  139.4659  168.0879 C.ar    1  UNL1       -0.0011
     10 C         142.2193  139.4485  169.5776 C.ar    1  UNL1        0.0363
     11 C         142.5083  140.6817  170.3811 C.ar    1  UNL1        0.1337
     12 O         142.3335  140.6643  171.8708 O.3     1  UNL1       -0.5055
     13 C         142.9721  141.9324  169.6949 C.ar    1  UNL1        0.0363
     14 C         143.1469  141.9498  168.2053 C.ar    1  UNL1       -0.0011
     15 H         142.0437  139.8831  172.2994 H       1  UNL1        0.2922
     16 N         143.9652  141.5497  159.1756 N.am    1  UNL1       -0.2743
     17 C         143.6874  140.0764  159.1257 C.3     1  UNL1        0.0957
     18 C         143.4352  139.6046  160.5272 C.3     1  UNL1        0.0468
     19 C         143.5572  140.7862  161.4431 C.3     1  UNL1        0.1368
     20 C         143.8847  141.9883  160.6078 C.2     1  UNL1        0.2404
     21 O         144.0949  143.3840  161.1155 O.2     1  UNL1       -0.2734
     22 C         144.2699  142.4297  157.9998 C.3     1  UNL1        0.1202
     23 C         149.4219  141.7513  155.0002 C.3     1  UNL1        0.0310
     24 C         148.1339  141.9209  155.7501 C.ar    1  UNL1       -0.0219
     25 C         146.8833  141.2592  155.2520 C.ar    1  UNL1       -0.0045
     26 C         145.5953  141.4288  156.0019 C.ar    1  UNL1       -0.0029
     27 C         145.5579  142.2601  157.2499 C.ar    1  UNL1       -0.0024
     28 C         146.8085  142.9218  157.7479 C.ar    1  UNL1       -0.0029
     29 C         148.0965  142.7522  156.9980 C.ar    1  UNL1       -0.0045
@<TRIPOS>BOND
     1    23    24    1
     2    24    25   ar
     3    25    26   ar
     4    26    27   ar
     5    27    22    1
     6    22    16    1
     7    16    17    1
     8    17    18    1
     9    18    19    1
    10    19     1    1
    11     1     2    1
    12     2     3    1
    13     3     4    1
    14     4     8    1
    15     8     9   ar
    16     9    10   ar
    17    10    11   ar
    18    11    12    1
    19    11    13   ar
    20    13    14   ar
    21     4     5    1
    22     5     6    1
    23     5     7    1
    24    19    20    1
    25    20    21    2
    26    27    28   ar
    27    28    29   ar
    28    29    24   ar
    29    20    16   am
    30     7     1    1
    31    14     8   ar
    32    12    15    1
@<TRIPOS>MOLECULE
*****
 29 32 0 0 0
SMALL
GASTEIGER

@<TRIPOS>ATOM
      1 N         140.1055  139.7883  163.4145 N.3     1  UNL1       -0.2641
      2 C         139.1166  140.8009  163.9111 C.3     1  UNL1        0.0730
      3 C         139.1407  141.2308  165.3480 C.3     1  UNL1        0.0245
      4 C         140.1539  140.6482  166.2882 C.3     1  UNL1        0.0577
      5 C         141.1429  139.6356  165.7916 C.3     1  UNL1        0.1808
      6 F         142.1560  139.0529  166.7319 F       1  UNL1       -0.2354
      7 C         141.1186  139.2057  164.3548 C.3     1  UNL1        0.1084
      8 C         140.1780  141.0782  167.7251 C.ar    1  UNL1       -0.0196
      9 C         140.6124  142.4681  168.0848 C.ar    1  UNL1       -0.0011
     10 C         140.6366  142.8981  169.5217 C.ar    1  UNL1        0.0363
     11 C         140.2264  141.9380  170.5988 C.ar    1  UNL1        0.1337
     12 O         140.2505  142.3680  172.0356 O.3     1  UNL1       -0.5055
     13 C         139.7920  140.5481  170.2390 C.ar    1  UNL1        0.0363
     14 C         139.7678  140.1181  168.8023 C.ar    1  UNL1       -0.0011
     15 H         140.5219  143.2362  172.2603 H       1  UNL1        0.2922
     16 N         140.6989  139.0440  159.6516 N.am    1  UNL1       -0.2743
     17 C         139.3894  138.3494  159.8815 C.3     1  UNL1        0.0957
     18 C         139.0077  138.5436  161.3191 C.3     1  UNL1        0.0468
     19 C         140.0813  139.3583  161.9777 C.3     1  UNL1        0.1368
     20 C         141.1265  139.6675  160.9472 C.2     1  UNL1        0.2404
     21 O         142.3793  140.4610  161.1725 O.2     1  UNL1       -0.2734
     22 C         141.4490  139.1044  158.3541 C.3     1  UNL1        0.1202
     23 C         141.7191  134.2656  154.8167 C.3     1  UNL1        0.0310
     24 C         141.6516  135.4753  155.7010 C.ar    1  UNL1       -0.0219
     25 C         142.7492  135.7459  156.6868 C.ar    1  UNL1       -0.0045
     26 C         142.6817  136.9556  157.5712 C.ar    1  UNL1       -0.0029
     27 C         141.5165  137.8947  157.4697 C.ar    1  UNL1       -0.0024
     28 C         140.4189  137.6242  156.4839 C.ar    1  UNL1       -0.0029
     29 C         140.4864  136.4145  155.5996 C.ar    1  UNL1       -0.0045
@<TRIPOS>BOND
     1    23    24    1
     2    24    25   ar
     3    25    26   ar
     4    26    27   ar
     5    27    22    1
     6    22    16    1
     7    16    17    1
     8    17    18    1
     9    18    19    1
    10    19     1    1
    11     1     2    1
    12     2     3    1
    13     3     4    1
    14     4     8    1
    15     8     9   ar
    16     9    10   ar
    17    10    11   ar
    18    11    12    1
    19    11    13   ar
    20    13    14   ar
    21     4     5    1
    22     5     6    1
    23     5     7    1
    24    19    20    1
    25    20    21    2
    26    27    28   ar
    27    28    29   ar
    28    29    24   ar
    29    20    16   am
    30     7     1    1
    31    14     8   ar
    32    12    15    1
@<TRIPOS>MOLECULE
*****
 29 32 0 0 0
SMALL
GASTEIGER

@<TRIPOS>ATOM
      1 N         142.0133  139.4005  162.6626 N.3     1  UNL1       -0.2641
      2 C         141.8289  138.1598  163.4853 C.3     1  UNL1        0.0730
      3 C         141.5599  138.2688  164.9569 C.3     1  UNL1        0.0245
      4 C         141.4752  139.6185  165.6060 C.3     1  UNL1        0.0577
      5 C         141.6596  140.8592  164.7833 C.3     1  UNL1        0.1808
      6 F         141.5749  142.2089  165.4323 F       1  UNL1       -0.2354
      7 C         141.9286  140.7501  163.3117 C.3     1  UNL1        0.1084
      8 C         141.2061  139.7275  167.0776 C.ar    1  UNL1       -0.0196
      9 C         142.3191  139.5178  168.0611 C.ar    1  UNL1       -0.0011
     10 C         142.0501  139.6268  169.5327 C.ar    1  UNL1        0.0363
     11 C         140.6680  139.9455  170.0208 C.ar    1  UNL1        0.1337
     12 O         140.3989  140.0545  171.4925 O.3     1  UNL1       -0.5055
     13 C         139.5550  140.1552  169.0373 C.ar    1  UNL1        0.0363
     14 C         139.8240  140.0462  167.5658 C.ar    1  UNL1       -0.0011
     15 H         141.0942  139.9236  172.1068 H       1  UNL1        0.2922
     16 N         142.0029  138.8591  158.8192 N.am    1  UNL1       -0.2743
     17 C         143.3899  139.3884  159.0336 C.3     1  UNL1        0.0957
     18 C         143.5627  139.6557  160.4995 C.3     1  UNL1        0.0468
     19 C         142.2823  139.2915  161.1911 C.3     1  UNL1        0.1368
     20 C         141.3184  138.7992  160.1526 C.2     1  UNL1        0.2404
     21 O         139.9161  138.3295  160.4035 O.2     1  UNL1       -0.2734
     22 C         141.4052  138.4598  157.5026 C.3     1  UNL1        0.1202
     23 C         142.6419  133.0782  155.1554 C.3     1  UNL1        0.0310
     24 C         142.3327  134.4236  155.7422 C.ar    1  UNL1       -0.0219
     25 C         141.1396  135.1952  155.2617 C.ar    1  UNL1       -0.0045
     26 C         140.8304  136.5406  155.8485 C.ar    1  UNL1       -0.0029
     27 C         141.7144  137.1144  156.9158 C.ar    1  UNL1       -0.0024
     28 C         142.9076  136.3428  157.3964 C.ar    1  UNL1       -0.0029
     29 C         143.2167  134.9974  156.8096 C.ar    1  UNL1       -0.0045
@<TRIPOS>BOND
     1    23    24    1
     2    24    25   ar
     3    25    26   ar
     4    26    27   ar
     5    27    22    1
     6    22    16    1
     7    16    17    1
     8    17    18    1
     9    18    19    1
    10    19     1    1
    11     1     2    1
    12     2     3    1
    13     3     4    1
    14     4     8    1
    15     8     9   ar
    16     9    10   ar
    17    10    11   ar
    18    11    12    1
    19    11    13   ar
    20    13    14   ar
    21     4     5    1
    22     5     6    1
    23     5     7    1
    24    19    20    1
    25    20    21    2
    26    27    28   ar
    27    28    29   ar
    28    29    24   ar
    29    20    16   am
    30     7     1    1
    31    14     8   ar
    32    12    15    1
@<TRIPOS>MOLECULE
*****
 29 32 0 0 0
SMALL
GASTEIGER

@<TRIPOS>ATOM
      1 N         142.6856  140.5591  163.6984 N.3     1  UNL1       -0.2641
      2 C         141.5351  139.8309  164.3278 C.3     1  UNL1        0.0730
      3 C         141.1638  140.1060  165.7549 C.3     1  UNL1        0.0245
      4 C         141.9430  141.1093  166.5526 C.3     1  UNL1        0.0577
      5 C         143.0936  141.8375  165.9232 C.3     1  UNL1        0.1808
      6 F         143.8727  142.8408  166.7208 F       1  UNL1       -0.2354
      7 C         143.4647  141.5624  164.4961 C.3     1  UNL1        0.1084
      8 C         141.5718  141.3844  167.9796 C.ar    1  UNL1       -0.0196
      9 C         141.9307  140.3983  169.0514 C.ar    1  UNL1       -0.0011
     10 C         141.5594  140.6733  170.4785 C.ar    1  UNL1        0.0363
     11 C         140.8292  141.9346  170.8337 C.ar    1  UNL1        0.1337
     12 O         140.4579  142.2097  172.2607 O.3     1  UNL1       -0.5055
     13 C         140.4703  142.9207  169.7619 C.ar    1  UNL1        0.0363
     14 C         140.8415  142.6456  168.3349 C.ar    1  UNL1       -0.0011
     15 H         140.6822  141.5937  172.9302 H       1  UNL1        0.2922
     16 N         143.2644  140.4807  159.8612 N.am    1  UNL1       -0.2743
     17 C         143.9919  139.2408  160.2895 C.3     1  UNL1        0.0957
     18 C         143.8637  139.1193  161.7791 C.3     1  UNL1        0.0468
     19 C         143.0568  140.2841  162.2714 C.3     1  UNL1        0.1368
     20 C         142.6864  141.1254  161.0862 C.2     1  UNL1        0.2404
     21 O         141.8798  142.3896  161.1198 O.2     1  UNL1       -0.2734
     22 C         143.1371  140.9870  158.4550 C.3     1  UNL1        0.1202
     23 C         148.0576  142.0062  155.1764 C.3     1  UNL1        0.0310
     24 C         146.8275  141.7514  155.9960 C.ar    1  UNL1       -0.0219
     25 C         146.5220  142.6200  157.1801 C.ar    1  UNL1       -0.0045
     26 C         145.2919  142.3652  157.9998 C.ar    1  UNL1       -0.0029
     27 C         144.3672  141.2418  157.6353 C.ar    1  UNL1       -0.0024
     28 C         144.6727  140.3732  156.4512 C.ar    1  UNL1       -0.0029
     29 C         145.9028  140.6280  155.6316 C.ar    1  UNL1       -0.0045
@<TRIPOS>BOND
     1    23    24    1
     2    24    25   ar
     3    25    26   ar
     4    26    27   ar
     5    27    22    1
     6    22    16    1
     7    16    17    1
     8    17    18    1
     9    18    19    1
    10    19     1    1
    11     1     2    1
    12     2     3    1
    13     3     4    1
    14     4     8    1
    15     8     9   ar
    16     9    10   ar
    17    10    11   ar
    18    11    12    1
    19    11    13   ar
    20    13    14   ar
    21     4     5    1
    22     5     6    1
    23     5     7    1
    24    19    20    1
    25    20    21    2
    26    27    28   ar
    27    28    29   ar
    28    29    24   ar
    29    20    16   am
    30     7     1    1
    31    14     8   ar
    32    12    15    1
@<TRIPOS>MOLECULE
*****
 29 32 0 0 0
SMALL
GASTEIGER

@<TRIPOS>ATOM
      1 N         140.4763  143.0623  163.2763 N.3     1  UNL1       -0.2641
      2 C         139.2068  142.6612  163.9671 C.3     1  UNL1        0.0730
      3 C         139.2305  142.2792  165.4175 C.3     1  UNL1        0.0245
      4 C         140.5238  142.2983  166.1770 C.3     1  UNL1        0.0577
      5 C         141.7934  142.6995  165.4863 C.3     1  UNL1        0.1808
      6 F         143.0867  142.7186  166.2459 F       1  UNL1       -0.2354
      7 C         141.7696  143.0815  164.0359 C.3     1  UNL1        0.1084
      8 C         140.5475  141.9163  167.6274 C.ar    1  UNL1       -0.0196
      9 C         140.4963  142.9797  168.6840 C.ar    1  UNL1       -0.0011
     10 C         140.5200  142.5977  170.1344 C.ar    1  UNL1        0.0363
     11 C         140.5949  141.1522  170.5280 C.ar    1  UNL1        0.1337
     12 O         140.6186  140.7702  171.9784 O.3     1  UNL1       -0.5055
     13 C         140.6460  140.0887  169.4714 C.ar    1  UNL1        0.0363
     14 C         140.6223  140.4707  168.0211 C.ar    1  UNL1       -0.0011
     15 H         140.5867  141.4345  172.6384 H       1  UNL1        0.2922
     16 N         140.3542  144.7547  159.7855 N.am    1  UNL1       -0.2743
     17 C         140.4782  143.3097  159.4028 C.3     1  UNL1        0.0957
     18 C         140.5390  142.4997  160.6640 C.3     1  UNL1        0.0468
     19 C         140.4526  143.4443  161.8261 C.3     1  UNL1        0.1368
     20 C         140.3384  144.8379  161.2831 C.2     1  UNL1        0.2404
     21 O         140.2279  146.0942  162.0952 O.2     1  UNL1       -0.2734
     22 C         140.2622  145.9132  158.8371 C.3     1  UNL1        0.1202
     23 C         141.7388  145.1909  153.0666 C.3     1  UNL1        0.0310
     24 C         141.3696  145.3715  154.5092 C.ar    1  UNL1       -0.0219
     25 C         142.4122  145.2120  155.5758 C.ar    1  UNL1       -0.0045
     26 C         142.0430  145.3926  157.0184 C.ar    1  UNL1       -0.0029
     27 C         140.6313  145.7326  157.3945 C.ar    1  UNL1       -0.0024
     28 C         139.5888  145.8920  156.3279 C.ar    1  UNL1       -0.0029
     29 C         139.9579  145.7114  154.8853 C.ar    1  UNL1       -0.0045
@<TRIPOS>BOND
     1    23    24    1
     2    24    25   ar
     3    25    26   ar
     4    26    27   ar
     5    27    22    1
     6    22    16    1
     7    16    17    1
     8    17    18    1
     9    18    19    1
    10    19     1    1
    11     1     2    1
    12     2     3    1
    13     3     4    1
    14     4     8    1
    15     8     9   ar
    16     9    10   ar
    17    10    11   ar
    18    11    12    1
    19    11    13   ar
    20    13    14   ar
    21     4     5    1
    22     5     6    1
    23     5     7    1
    24    19    20    1
    25    20    21    2
    26    27    28   ar
    27    28    29   ar
    28    29    24   ar
    29    20    16   am
    30     7     1    1
    31    14     8   ar
    32    12    15    1
@<TRIPOS>MOLECULE
*****
 29 32 0 0 0
SMALL
GASTEIGER

@<TRIPOS>ATOM
      1 N         140.0995  141.1405  163.0181 N.3     1  UNL1       -0.2641
      2 C         138.8188  141.3163  163.7788 C.3     1  UNL1        0.0730
      3 C         138.8487  141.4860  165.2689 C.3     1  UNL1        0.0245
      4 C         140.1594  141.4800  165.9983 C.3     1  UNL1        0.0577
      5 C         141.4403  141.3043  165.2376 C.3     1  UNL1        0.1808
      6 F         142.7510  141.2983  165.9669 F       1  UNL1       -0.2354
      7 C         141.4102  141.1345  163.7475 C.3     1  UNL1        0.1084
      8 C         140.1893  141.6498  167.4883 C.ar    1  UNL1       -0.0196
      9 C         139.7880  140.5130  168.3809 C.ar    1  UNL1       -0.0011
     10 C         139.8179  140.6828  169.8710 C.ar    1  UNL1        0.0363
     11 C         140.2492  141.9893  170.4684 C.ar    1  UNL1        0.1337
     12 O         140.2791  142.1591  171.9585 O.3     1  UNL1       -0.5055
     13 C         140.6505  143.1261  169.5758 C.ar    1  UNL1        0.0363
     14 C         140.6206  142.9564  168.0859 C.ar    1  UNL1       -0.0011
     15 H         140.0284  141.4490  172.5160 H       1  UNL1        0.2922
     16 N         139.7361  140.0220  159.3192 N.am    1  UNL1       -0.2743
     17 C         140.3110  141.3972  159.1510 C.3     1  UNL1        0.0957
     18 C         140.5171  141.9836  160.5162 C.3     1  UNL1        0.0468
     19 C         140.0696  140.9708  161.5281 C.3     1  UNL1        0.1368
     20 C         139.5869  139.7585  160.7884 C.2     1  UNL1        0.2404
     21 O         139.0494  138.5030  161.4087 O.2     1  UNL1       -0.2734
     22 C         139.3740  139.0763  158.2126 C.3     1  UNL1        0.1202
     23 C         143.5304  135.4035  155.9246 C.3     1  UNL1        0.0310
     24 C         142.4913  136.3217  156.4966 C.ar    1  UNL1       -0.0219
     25 C         142.8260  137.1953  157.6690 C.ar    1  UNL1       -0.0045
     26 C         141.7869  138.1135  158.2410 C.ar    1  UNL1       -0.0029
     27 C         140.4131  138.1581  157.6406 C.ar    1  UNL1       -0.0024
     28 C         140.0784  137.2844  156.4682 C.ar    1  UNL1       -0.0029
     29 C         141.1175  136.3662  155.8962 C.ar    1  UNL1       -0.0045
@<TRIPOS>BOND
     1    23    24    1
     2    24    25   ar
     3    25    26   ar
     4    26    27   ar
     5    27    22    1
     6    22    16    1
     7    16    17    1
     8    17    18    1
     9    18    19    1
    10    19     1    1
    11     1     2    1
    12     2     3    1
    13     3     4    1
    14     4     8    1
    15     8     9   ar
    16     9    10   ar
    17    10    11   ar
    18    11    12    1
    19    11    13   ar
    20    13    14   ar
    21     4     5    1
    22     5     6    1
    23     5     7    1
    24    19    20    1
    25    20    21    2
    26    27    28   ar
    27    28    29   ar
    28    29    24   ar
    29    20    16   am
    30     7     1    1
    31    14     8   ar
    32    12    15    1
