@<TRIPOS>MOLECULE
*****
 34 38 0 0 0
SMALL
GASTEIGER

@<TRIPOS>ATOM
      1 C         139.7916  141.0269  168.6850 C.3     1  UNL1        0.0765
      2 C         138.8293  140.1609  169.4425 C.3     1  UNL1        0.0091
      3 C         138.1638  139.2406  168.4626 C.3     1  UNL1        0.0005
      4 C         138.7148  139.5379  167.0996 C.3     1  UNL1        0.0005
      5 C         137.6878  138.4448  167.1173 C.3     1  UNL1        0.0000
      6 C         138.4304  138.9460  165.7509 C.3     1  UNL1        0.0003
      7 C         139.1521  139.4580  164.5398 C.3     1  UNL1        0.0043
      8 C         140.1582  140.5621  164.6772 C.3     1  UNL1        0.0220
      9 C         140.8800  141.0741  163.4660 C.ar    1  UNL1       -0.0263
     10 C         140.5956  140.4822  162.1175 C.ar    1  UNL1       -0.0015
     11 C         141.3173  140.9943  160.9064 C.ar    1  UNL1        0.0366
     12 C         142.3234  142.0983  161.0438 C.ar    1  UNL1        0.1382
     13 C         142.6078  142.6902  162.3924 C.ar    1  UNL1        0.0323
     14 C         141.8861  142.1781  163.6035 C.ar    1  UNL1       -0.0231
     15 C         142.1705  142.7701  164.9521 C.3     1  UNL1        0.0261
     16 C         141.4487  142.2580  166.1633 C.3     1  UNL1        0.0050
     17 C         140.4426  141.1540  166.0258 C.3     1  UNL1        0.0048
     18 C         139.7209  140.6419  167.2370 C.3     1  UNL1        0.0089
     19 N         142.0523  141.7471  169.7438 N.am    1  UNL1       -0.3043
     20 C         140.6705  142.0912  169.2724 C.2     1  UNL1        0.2220
     21 O         140.1674  143.4995  169.3886 O.2     1  UNL1       -0.2751
     22 H         142.3825  140.8228  169.6675 H       1  UNL1        0.1494
     23 C         144.4055  142.8029  170.0560 C.3     1  UNL1        0.0230
     24 C         142.9311  142.8114  170.3312 C.3     1  UNL1        0.0894
     25 O         143.0452  142.6103  159.8326 O.3     1  UNL1       -0.4754
     26 C         142.3636  143.5709  158.9037 C.3     1  UNL1        0.2068
     27 C         141.6153  144.7469  159.4578 C.3     1  UNL1        0.0646
     28 C         140.1553  144.6233  159.7789 C.3     1  UNL1        0.0759
     29 N         139.7044  144.5622  161.2081 N.3     1  UNL1       -0.2738
     30 C         140.1609  145.4644  162.3161 C.3     1  UNL1        0.0721
     31 C         139.4564  145.0479  163.5731 C.3     1  UNL1        0.0187
     32 C         138.5643  143.8883  163.2420 C.3     1  UNL1        0.0174
     33 C         138.7176  143.5881  161.7804 C.3     1  UNL1        0.0576
     34 C         138.0086  142.5041  161.0239 C.3     1  UNL1        0.0173
@<TRIPOS>BOND
     1    23    24    1
     2    24    19    1
     3    19    20   am
     4    20    21    2
     5     1    20    1
     6     1     2    1
     7     2     3    1
     8     3     4    1
     9     4     5    1
    10     4     6    1
    11     6     7    1
    12     8     7    1
    13     8     9    1
    14     9    10   ar
    15    10    11   ar
    16    11    12   ar
    17    12    25    1
    18    25    26    1
    19    26    27    1
    20    27    28    1
    21    28    29    1
    22    29    30    1
    23    30    31    1
    24    31    32    1
    25    32    33    1
    26    33    34    1
    27    12    13   ar
    28    13    14   ar
    29    14    15    1
    30    15    16    1
    31    17    16    1
    32    17    18    1
    33    18     1    1
    34    18     4    1
    35    17     8    1
    36    14     9   ar
    37    33    29    1
    38    19    22    1
@<TRIPOS>MOLECULE
*****
 34 38 0 0 0
SMALL
GASTEIGER

@<TRIPOS>ATOM
      1 C         139.8360  141.0996  168.5728 C.3     1  UNL1        0.0765
      2 C         139.0017  140.1292  169.3552 C.3     1  UNL1        0.0091
      3 C         138.2726  139.2534  168.3799 C.3     1  UNL1        0.0005
      4 C         138.6562  139.6824  166.9948 C.3     1  UNL1        0.0005
      5 C         137.6859  138.5392  167.0325 C.3     1  UNL1        0.0000
      6 C         138.2506  139.1816  165.6403 C.3     1  UNL1        0.0003
      7 C         138.8112  139.8218  164.4051 C.3     1  UNL1        0.0043
      8 C         139.7775  140.9629  164.5243 C.3     1  UNL1        0.0220
      9 C         140.3381  141.6031  163.2890 C.ar    1  UNL1       -0.0263
     10 C         139.9324  141.1022  161.9346 C.ar    1  UNL1       -0.0015
     11 C         140.4930  141.7424  160.6993 C.ar    1  UNL1        0.0366
     12 C         141.4593  142.8835  160.8185 C.ar    1  UNL1        0.1382
     13 C         141.8650  143.3843  162.1729 C.ar    1  UNL1        0.0323
     14 C         141.3044  142.7441  163.4082 C.ar    1  UNL1       -0.0231
     15 C         141.7101  143.2450  164.7627 C.3     1  UNL1        0.0261
     16 C         141.1494  142.6048  165.9979 C.3     1  UNL1        0.0050
     17 C         140.1831  141.4637  165.8787 C.3     1  UNL1        0.0048
     18 C         139.6225  140.8235  167.1140 C.3     1  UNL1        0.0089
     19 N         142.1163  141.8113  169.5947 N.am    1  UNL1       -0.3043
     20 C         140.7274  142.1600  169.1482 C.2     1  UNL1        0.2220
     21 O         140.2298  143.5692  169.2771 O.2     1  UNL1       -0.2751
     22 H         142.4429  140.8864  169.5101 H       1  UNL1        0.1494
     23 C         144.4979  142.7305  170.0767 C.3     1  UNL1        0.0230
     24 C         143.0076  142.8717  170.1702 C.3     1  UNL1        0.0894
     25 O         142.0199  143.5237  159.5832 O.3     1  UNL1       -0.4754
     26 C         143.4079  143.1847  159.1267 C.3     1  UNL1        0.2068
     27 C         144.0142  141.8612  159.4886 C.3     1  UNL1        0.0646
     28 C         144.7916  141.7157  160.7632 C.3     1  UNL1        0.0759
     29 N         144.2714  140.8382  161.8628 N.3     1  UNL1       -0.2738
     30 C         143.3741  139.6485  161.6917 C.3     1  UNL1        0.0721
     31 C         143.1053  139.0713  163.0498 C.3     1  UNL1        0.0187
     32 C         143.8367  139.9044  164.0604 C.3     1  UNL1        0.0174
     33 C         144.5573  140.9964  163.3268 C.3     1  UNL1        0.0576
     34 C         145.4136  142.0598  163.9481 C.3     1  UNL1        0.0173
@<TRIPOS>BOND
     1    23    24    1
     2    24    19    1
     3    19    20   am
     4    20    21    2
     5     1    20    1
     6     1     2    1
     7     2     3    1
     8     3     4    1
     9     4     5    1
    10     4     6    1
    11     6     7    1
    12     8     7    1
    13     8     9    1
    14     9    10   ar
    15    10    11   ar
    16    11    12   ar
    17    12    25    1
    18    25    26    1
    19    26    27    1
    20    27    28    1
    21    28    29    1
    22    29    30    1
    23    30    31    1
    24    31    32    1
    25    32    33    1
    26    33    34    1
    27    12    13   ar
    28    13    14   ar
    29    14    15    1
    30    15    16    1
    31    17    16    1
    32    17    18    1
    33    18     1    1
    34    18     4    1
    35    17     8    1
    36    14     9   ar
    37    33    29    1
    38    19    22    1
@<TRIPOS>MOLECULE
*****
 34 38 0 0 0
SMALL
GASTEIGER

@<TRIPOS>ATOM
      1 C         140.1511  140.5958  169.7315 C.3     1  UNL1        0.0765
      2 C         140.8288  140.9434  171.0237 C.3     1  UNL1        0.0091
      3 C         142.1063  141.6595  170.6990 C.3     1  UNL1        0.0005
      4 C         142.2180  141.7543  169.2063 C.3     1  UNL1        0.0005
      5 C         143.3665  142.3755  169.9446 C.3     1  UNL1        0.0000
      6 C         143.2639  142.3544  168.3141 C.3     1  UNL1        0.0003
      7 C         143.1015  142.2971  166.8240 C.3     1  UNL1        0.0043
      8 C         141.8931  141.6396  166.2261 C.3     1  UNL1        0.0220
      9 C         141.7307  141.5823  164.7360 C.ar    1  UNL1       -0.0263
     10 C         142.7766  142.1824  163.8439 C.ar    1  UNL1       -0.0015
     11 C         142.6142  142.1250  162.3538 C.ar    1  UNL1        0.0366
     12 C         141.4058  141.4676  161.7559 C.ar    1  UNL1        0.1382
     13 C         140.3599  140.8675  162.6480 C.ar    1  UNL1        0.0323
     14 C         140.5223  140.9248  164.1380 C.ar    1  UNL1       -0.0231
     15 C         139.4763  140.3247  165.0302 C.3     1  UNL1        0.0261
     16 C         139.6388  140.3821  166.5202 C.3     1  UNL1        0.0050
     17 C         140.8472  141.0395  167.1182 C.3     1  UNL1        0.0048
     18 C         141.0096  141.0969  168.6083 C.3     1  UNL1        0.0089
     19 N         137.9135  139.7668  170.7594 N.am    1  UNL1       -0.3043
     20 C         138.8442  139.8736  169.5879 C.2     1  UNL1        0.2220
     21 O         138.4679  139.2583  168.2727 O.2     1  UNL1       -0.2751
     22 H         138.1604  140.1707  171.6226 H       1  UNL1        0.1494
     23 C         135.8001  138.7042  171.8337 C.3     1  UNL1        0.0230
     24 C         136.6067  139.0447  170.6157 C.3     1  UNL1        0.0894
     25 O         141.2434  141.4102  160.2657 O.3     1  UNL1       -0.4754
     26 C         140.7708  142.6202  159.5157 C.3     1  UNL1        0.2068
     27 C         139.6140  143.4208  160.0362 C.3     1  UNL1        0.0646
     28 C         139.8516  144.5347  161.0123 C.3     1  UNL1        0.0759
     29 N         139.4068  144.3906  162.4375 N.3     1  UNL1       -0.2738
     30 C         138.1102  143.7953  162.9006 C.3     1  UNL1        0.0721
     31 C         138.0825  143.8533  164.3992 C.3     1  UNL1        0.0187
     32 C         139.3620  144.4846  164.8623 C.3     1  UNL1        0.0174
     33 C         140.1804  144.8166  163.6499 C.3     1  UNL1        0.0576
     34 C         141.5347  145.4615  163.6500 C.3     1  UNL1        0.0173
@<TRIPOS>BOND
     1    23    24    1
     2    24    19    1
     3    19    20   am
     4    20    21    2
     5     1    20    1
     6     1     2    1
     7     2     3    1
     8     3     4    1
     9     4     5    1
    10     4     6    1
    11     6     7    1
    12     8     7    1
    13     8     9    1
    14     9    10   ar
    15    10    11   ar
    16    11    12   ar
    17    12    25    1
    18    25    26    1
    19    26    27    1
    20    27    28    1
    21    28    29    1
    22    29    30    1
    23    30    31    1
    24    31    32    1
    25    32    33    1
    26    33    34    1
    27    12    13   ar
    28    13    14   ar
    29    14    15    1
    30    15    16    1
    31    17    16    1
    32    17    18    1
    33    18     1    1
    34    18     4    1
    35    17     8    1
    36    14     9   ar
    37    33    29    1
    38    19    22    1
@<TRIPOS>MOLECULE
*****
 34 38 0 0 0
SMALL
GASTEIGER

@<TRIPOS>ATOM
      1 C         140.4546  140.2970  168.9830 C.3     1  UNL1        0.0765
      2 C         141.0466  140.1207  170.3499 C.3     1  UNL1        0.0091
      3 C         142.3477  140.8659  170.3910 C.3     1  UNL1        0.0005
      4 C         142.5598  141.5027  169.0497 C.3     1  UNL1        0.0005
      5 C         143.6605  141.7705  170.0330 C.3     1  UNL1        0.0000
      6 C         143.6673  142.3573  168.5081 C.3     1  UNL1        0.0003
      7 C         143.6046  142.8603  167.0964 C.3     1  UNL1        0.0043
      8 C         142.4345  142.5087  166.2262 C.3     1  UNL1        0.0220
      9 C         142.3719  143.0118  164.8144 C.ar    1  UNL1       -0.0263
     10 C         143.4793  143.8664  164.2729 C.ar    1  UNL1       -0.0015
     11 C         143.4166  144.3694  162.8612 C.ar    1  UNL1        0.0366
     12 C         142.2466  144.0178  161.9909 C.ar    1  UNL1        0.1382
     13 C         141.1392  143.1632  162.5324 C.ar    1  UNL1        0.0323
     14 C         141.2018  142.6602  163.9441 C.ar    1  UNL1       -0.0231
     15 C         140.0944  141.8056  164.4857 C.3     1  UNL1        0.0261
     16 C         140.1571  141.3025  165.8974 C.3     1  UNL1        0.0050
     17 C         141.3271  141.6541  166.7676 C.3     1  UNL1        0.0048
     18 C         141.3898  141.1511  168.1794 C.3     1  UNL1        0.0089
     19 N         139.0398  139.1918  167.1049 N.am    1  UNL1       -0.3043
     20 C         139.1553  139.7203  168.5039 C.2     1  UNL1        0.2220
     21 O         137.9716  139.6723  169.4239 O.2     1  UNL1       -0.2751
     22 H         139.8167  139.2233  166.5010 H       1  UNL1        0.1494
     23 C         137.4107  137.1782  166.9019 C.3     1  UNL1        0.0230
     24 C         137.7406  138.6152  166.6258 C.3     1  UNL1        0.0894
     25 O         142.1839  144.5209  160.5791 O.3     1  UNL1       -0.4754
     26 C         142.5950  143.6283  159.4459 C.3     1  UNL1        0.2068
     27 C         143.6828  142.6150  159.6460 C.3     1  UNL1        0.0646
     28 C         143.3358  141.2100  160.0402 C.3     1  UNL1        0.0759
     29 N         143.6144  140.7317  161.4343 N.3     1  UNL1       -0.2738
     30 C         144.8352  141.0466  162.2470 C.3     1  UNL1        0.0721
     31 C         144.6965  140.3641  163.5755 C.3     1  UNL1        0.0187
     32 C         143.3898  139.6274  163.5839 C.3     1  UNL1        0.0174
     33 C         142.7211  139.8546  162.2606 C.3     1  UNL1        0.0576
     34 C         141.3924  139.3017  161.8377 C.3     1  UNL1        0.0173
@<TRIPOS>BOND
     1    23    24    1
     2    24    19    1
     3    19    20   am
     4    20    21    2
     5     1    20    1
     6     1     2    1
     7     2     3    1
     8     3     4    1
     9     4     5    1
    10     4     6    1
    11     6     7    1
    12     8     7    1
    13     8     9    1
    14     9    10   ar
    15    10    11   ar
    16    11    12   ar
    17    12    25    1
    18    25    26    1
    19    26    27    1
    20    27    28    1
    21    28    29    1
    22    29    30    1
    23    30    31    1
    24    31    32    1
    25    32    33    1
    26    33    34    1
    27    12    13   ar
    28    13    14   ar
    29    14    15    1
    30    15    16    1
    31    17    16    1
    32    17    18    1
    33    18     1    1
    34    18     4    1
    35    17     8    1
    36    14     9   ar
    37    33    29    1
    38    19    22    1
@<TRIPOS>MOLECULE
*****
 34 38 0 0 0
SMALL
GASTEIGER

@<TRIPOS>ATOM
      1 C         140.1685  140.5822  169.7308 C.3     1  UNL1        0.0765
      2 C         140.8905  140.8695  171.0139 C.3     1  UNL1        0.0091
      3 C         142.1576  141.5991  170.6793 C.3     1  UNL1        0.0005
      4 C         142.2189  141.7627  169.1896 C.3     1  UNL1        0.0005
      5 C         143.3930  142.3485  169.9164 C.3     1  UNL1        0.0000
      6 C         143.2352  142.4028  168.2911 C.3     1  UNL1        0.0003
      7 C         143.0222  142.4143  166.8063 C.3     1  UNL1        0.0043
      8 C         141.7929  141.7858  166.2201 C.3     1  UNL1        0.0220
      9 C         141.5799  141.7974  164.7353 C.ar    1  UNL1       -0.0263
     10 C         142.5962  142.4375  163.8368 C.ar    1  UNL1       -0.0015
     11 C         142.3832  142.4490  162.3521 C.ar    1  UNL1        0.0366
     12 C         141.1539  141.8205  161.7658 C.ar    1  UNL1        0.1382
     13 C         140.1375  141.1805  162.6643 C.ar    1  UNL1        0.0323
     14 C         140.3505  141.1689  164.1491 C.ar    1  UNL1       -0.0231
     15 C         139.3341  140.5289  165.0476 C.3     1  UNL1        0.0261
     16 C         139.5472  140.5173  166.5323 C.3     1  UNL1        0.0050
     17 C         140.7765  141.1458  167.1186 C.3     1  UNL1        0.0048
     18 C         140.9895  141.1342  168.6034 C.3     1  UNL1        0.0089
     19 N         137.9150  139.8061  170.7650 N.am    1  UNL1       -0.3043
     20 C         138.8560  139.8682  169.5985 C.2     1  UNL1        0.2220
     21 O         138.4845  139.2163  168.2997 O.2     1  UNL1       -0.2751
     22 H         138.1588  140.2340  171.6175 H       1  UNL1        0.1494
     23 C         136.1044  138.2250  171.7506 C.3     1  UNL1        0.0230
     24 C         136.6025  139.0921  170.6326 C.3     1  UNL1        0.0894
     25 O         140.9409  141.8321  160.2810 O.3     1  UNL1       -0.4754
     26 C         141.0705  140.5613  159.4948 C.3     1  UNL1        0.2068
     27 C         142.2625  139.6732  159.6959 C.3     1  UNL1        0.0646
     28 C         142.1723  138.4942  160.6189 C.3     1  UNL1        0.0759
     29 N         142.6908  138.5993  162.0225 N.3     1  UNL1       -0.2738
     30 C         143.9783  139.2453  162.4407 C.3     1  UNL1        0.0721
     31 C         144.0962  139.1220  163.9310 C.3     1  UNL1        0.0187
     32 C         142.8814  138.3997  164.4338 C.3     1  UNL1        0.0174
     33 C         142.0129  138.0767  163.2542 C.3     1  UNL1        0.0576
     34 C         140.6974  137.3573  163.2987 C.3     1  UNL1        0.0173
@<TRIPOS>BOND
     1    23    24    1
     2    24    19    1
     3    19    20   am
     4    20    21    2
     5     1    20    1
     6     1     2    1
     7     2     3    1
     8     3     4    1
     9     4     5    1
    10     4     6    1
    11     6     7    1
    12     8     7    1
    13     8     9    1
    14     9    10   ar
    15    10    11   ar
    16    11    12   ar
    17    12    25    1
    18    25    26    1
    19    26    27    1
    20    27    28    1
    21    28    29    1
    22    29    30    1
    23    30    31    1
    24    31    32    1
    25    32    33    1
    26    33    34    1
    27    12    13   ar
    28    13    14   ar
    29    14    15    1
    30    15    16    1
    31    17    16    1
    32    17    18    1
    33    18     1    1
    34    18     4    1
    35    17     8    1
    36    14     9   ar
    37    33    29    1
    38    19    22    1
@<TRIPOS>MOLECULE
*****
 34 38 0 0 0
SMALL
GASTEIGER

@<TRIPOS>ATOM
      1 C         139.9996  140.4651  167.3471 C.3     1  UNL1        0.0765
      2 C         138.9011  139.9018  168.1992 C.3     1  UNL1        0.0091
      3 C         138.2489  138.7866  167.4371 C.3     1  UNL1        0.0005
      4 C         138.9442  138.6606  166.1140 C.3     1  UNL1        0.0005
      5 C         137.8284  137.6780  166.3128 C.3     1  UNL1        0.0000
      6 C         138.7319  137.7353  164.9526 C.3     1  UNL1        0.0003
      7 C         139.6016  137.8474  163.7357 C.3     1  UNL1        0.0043
      8 C         140.6836  138.8848  163.6801 C.3     1  UNL1        0.0220
      9 C         141.5534  138.9968  162.4630 C.ar    1  UNL1       -0.0263
     10 C         141.3410  138.0715  161.3017 C.ar    1  UNL1       -0.0015
     11 C         142.2108  138.1836  160.0848 C.ar    1  UNL1        0.0366
     12 C         143.2928  139.2210  160.0292 C.ar    1  UNL1        0.1382
     13 C         143.5051  140.1462  161.1905 C.ar    1  UNL1        0.0323
     14 C         142.6354  140.0342  162.4074 C.ar    1  UNL1       -0.0231
     15 C         142.8477  140.9595  163.5688 C.3     1  UNL1        0.0261
     16 C         141.9780  140.8474  164.7858 C.3     1  UNL1        0.0050
     17 C         140.8959  139.8100  164.8414 C.3     1  UNL1        0.0048
     18 C         140.0262  139.6980  166.0584 C.3     1  UNL1        0.0089
     19 N         142.2522  141.3109  168.3272 N.am    1  UNL1       -0.3043
     20 C         140.9114  141.5968  167.7186 C.2     1  UNL1        0.2220
     21 O         140.4822  143.0144  167.4815 O.2     1  UNL1       -0.2751
     22 H         142.5339  140.3805  168.4828 H       1  UNL1        0.1494
     23 C         144.0315  142.3376  169.9177 C.3     1  UNL1        0.0230
     24 C         143.1639  142.4427  168.6986 C.3     1  UNL1        0.0894
     25 O         144.1625  139.3330  158.8121 O.3     1  UNL1       -0.4754
     26 C         143.7793  140.2631  157.6995 C.3     1  UNL1        0.2068
     27 C         143.1735  141.5989  158.0137 C.3     1  UNL1        0.0646
     28 C         141.6847  141.7760  157.9708 C.3     1  UNL1        0.0759
     29 N         140.9016  141.8536  159.2478 N.3     1  UNL1       -0.2738
     30 C         141.1348  142.8241  160.3675 C.3     1  UNL1        0.0721
     31 C         140.1251  142.5446  161.4410 C.3     1  UNL1        0.0187
     32 C         139.2679  141.4014  160.9848 C.3     1  UNL1        0.0174
     33 C         139.7478  140.9743  159.6293 C.3     1  UNL1        0.0576
     34 C         139.1745  139.8630  158.8008 C.3     1  UNL1        0.0173
@<TRIPOS>BOND
     1    23    24    1
     2    24    19    1
     3    19    20   am
     4    20    21    2
     5     1    20    1
     6     1     2    1
     7     2     3    1
     8     3     4    1
     9     4     5    1
    10     4     6    1
    11     6     7    1
    12     8     7    1
    13     8     9    1
    14     9    10   ar
    15    10    11   ar
    16    11    12   ar
    17    12    25    1
    18    25    26    1
    19    26    27    1
    20    27    28    1
    21    28    29    1
    22    29    30    1
    23    30    31    1
    24    31    32    1
    25    32    33    1
    26    33    34    1
    27    12    13   ar
    28    13    14   ar
    29    14    15    1
    30    15    16    1
    31    17    16    1
    32    17    18    1
    33    18     1    1
    34    18     4    1
    35    17     8    1
    36    14     9   ar
    37    33    29    1
    38    19    22    1
@<TRIPOS>MOLECULE
*****
 34 38 0 0 0
SMALL
GASTEIGER

@<TRIPOS>ATOM
      1 C         139.9601  141.0551  168.1696 C.3     1  UNL1        0.0765
      2 C         139.1819  139.9390  168.8010 C.3     1  UNL1        0.0091
      3 C         138.5380  139.1444  167.7037 C.3     1  UNL1        0.0005
      4 C         138.9182  139.7694  166.3943 C.3     1  UNL1        0.0005
      5 C         138.0322  138.5664  166.2616 C.3     1  UNL1        0.0000
      6 C         138.5777  139.4158  164.9769 C.3     1  UNL1        0.0003
      7 C         139.1161  140.2431  163.8475 C.3     1  UNL1        0.0043
      8 C         139.9950  141.4240  164.1354 C.3     1  UNL1        0.0220
      9 C         140.5334  142.2514  163.0059 C.ar    1  UNL1       -0.0263
     10 C         140.1929  141.8977  161.5885 C.ar    1  UNL1       -0.0015
     11 C         140.7313  142.7250  160.4591 C.ar    1  UNL1        0.0366
     12 C         141.6102  143.9060  160.7470 C.ar    1  UNL1        0.1382
     13 C         141.9507  144.2596  162.1644 C.ar    1  UNL1        0.0323
     14 C         141.4124  143.4323  163.2938 C.ar    1  UNL1       -0.0231
     15 C         141.7529  143.7859  164.7113 C.3     1  UNL1        0.0261
     16 C         141.2145  142.9586  165.8407 C.3     1  UNL1        0.0050
     17 C         140.3356  141.7776  165.5527 C.3     1  UNL1        0.0048
     18 C         139.7972  140.9503  166.6823 C.3     1  UNL1        0.0089
     19 N         142.1305  141.7614  169.4110 N.am    1  UNL1       -0.3043
     20 C         140.7607  142.0938  168.8979 C.2     1  UNL1        0.2220
     21 O         140.1915  143.4648  169.1131 O.2     1  UNL1       -0.2751
     22 H         142.5041  140.8616  169.2698 H       1  UNL1        0.1494
     23 C         144.4201  142.8553  169.9681 C.3     1  UNL1        0.0230
     24 C         142.9310  142.8001  170.1393 C.3     1  UNL1        0.0894
     25 O         142.1486  144.7333  159.6175 O.3     1  UNL1       -0.4754
     26 C         141.2133  145.5407  158.7671 C.3     1  UNL1        0.2068
     27 C         141.1265  145.2802  157.2924 C.3     1  UNL1        0.0646
     28 C         139.8454  145.5442  156.5583 C.3     1  UNL1        0.0759
     29 N         139.6320  146.8607  155.8718 N.3     1  UNL1       -0.2738
     30 C         138.8503  148.0209  156.4130 C.3     1  UNL1        0.0721
     31 C         138.8980  149.1254  155.3993 C.3     1  UNL1        0.0187
     32 C         139.7092  148.6478  154.2314 C.3     1  UNL1        0.0174
     33 C         140.1628  147.2482  154.5234 C.3     1  UNL1        0.0576
     34 C         141.0003  146.3872  153.6249 C.3     1  UNL1        0.0173
@<TRIPOS>BOND
     1    23    24    1
     2    24    19    1
     3    19    20   am
     4    20    21    2
     5     1    20    1
     6     1     2    1
     7     2     3    1
     8     3     4    1
     9     4     5    1
    10     4     6    1
    11     6     7    1
    12     8     7    1
    13     8     9    1
    14     9    10   ar
    15    10    11   ar
    16    11    12   ar
    17    12    25    1
    18    25    26    1
    19    26    27    1
    20    27    28    1
    21    28    29    1
    22    29    30    1
    23    30    31    1
    24    31    32    1
    25    32    33    1
    26    33    34    1
    27    12    13   ar
    28    13    14   ar
    29    14    15    1
    30    15    16    1
    31    17    16    1
    32    17    18    1
    33    18     1    1
    34    18     4    1
    35    17     8    1
    36    14     9   ar
    37    33    29    1
    38    19    22    1
@<TRIPOS>MOLECULE
*****
 34 38 0 0 0
SMALL
GASTEIGER

@<TRIPOS>ATOM
      1 C         140.5741  140.8408  168.5173 C.3     1  UNL1        0.0765
      2 C         141.6980  140.9971  169.4984 C.3     1  UNL1        0.0091
      3 C         142.8145  141.7265  168.8118 C.3     1  UNL1        0.0005
      4 C         142.3807  142.0209  167.4065 C.3     1  UNL1        0.0005
      5 C         143.7584  142.5144  167.7357 C.3     1  UNL1        0.0000
      6 C         143.0676  142.7167  166.2689 C.3     1  UNL1        0.0003
      7 C         142.3699  142.8652  164.9494 C.3     1  UNL1        0.0043
      8 C         140.9852  142.3177  164.7674 C.3     1  UNL1        0.0220
      9 C         140.2875  142.4662  163.4478 C.ar    1  UNL1       -0.0263
     10 C         140.9745  143.1620  162.3104 C.ar    1  UNL1       -0.0015
     11 C         140.2767  143.3104  160.9909 C.ar    1  UNL1        0.0366
     12 C         138.8921  142.7630  160.8089 C.ar    1  UNL1        0.1382
     13 C         138.2052  142.0672  161.9463 C.ar    1  UNL1        0.0323
     14 C         138.9029  141.9188  163.2658 C.ar    1  UNL1       -0.0231
     15 C         138.2160  141.2229  164.4034 C.3     1  UNL1        0.0261
     16 C         138.9137  141.0745  165.7229 C.3     1  UNL1        0.0050
     17 C         140.2983  141.6219  165.9049 C.3     1  UNL1        0.0048
     18 C         140.9960  141.4735  167.2245 C.3     1  UNL1        0.0089
     19 N         138.7094  139.1810  167.7975 N.am    1  UNL1       -0.3043
     20 C         139.2592  140.1695  168.7827 C.2     1  UNL1        0.2220
     21 O         138.4941  140.4868  170.0332 O.2     1  UNL1       -0.2751
     22 H         139.2115  138.9727  166.9767 H       1  UNL1        0.1494
     23 C         137.0025  137.2921  167.2797 C.3     1  UNL1        0.0230
     24 C         137.3944  138.5098  168.0629 C.3     1  UNL1        0.0894
     25 O         138.1944  142.9115  159.4893 O.3     1  UNL1       -0.4754
     26 C         138.3377  141.8480  158.4413 C.3     1  UNL1        0.2068
     27 C         138.0929  140.4104  158.7931 C.3     1  UNL1        0.0646
     28 C         139.2447  139.5202  159.1547 C.3     1  UNL1        0.0759
     29 N         139.4060  139.0385  160.5660 N.3     1  UNL1       -0.2738
     30 C         138.3714  138.3119  161.3734 C.3     1  UNL1        0.0721
     31 C         138.9562  138.0233  162.7242 C.3     1  UNL1        0.0187
     32 C         140.3522  138.5715  162.7517 C.3     1  UNL1        0.0174
     33 C         140.6301  139.1990  161.4179 C.3     1  UNL1        0.0576
     34 C         141.9079  139.8692  161.0079 C.3     1  UNL1        0.0173
@<TRIPOS>BOND
     1    23    24    1
     2    24    19    1
     3    19    20   am
     4    20    21    2
     5     1    20    1
     6     1     2    1
     7     2     3    1
     8     3     4    1
     9     4     5    1
    10     4     6    1
    11     6     7    1
    12     8     7    1
    13     8     9    1
    14     9    10   ar
    15    10    11   ar
    16    11    12   ar
    17    12    25    1
    18    25    26    1
    19    26    27    1
    20    27    28    1
    21    28    29    1
    22    29    30    1
    23    30    31    1
    24    31    32    1
    25    32    33    1
    26    33    34    1
    27    12    13   ar
    28    13    14   ar
    29    14    15    1
    30    15    16    1
    31    17    16    1
    32    17    18    1
    33    18     1    1
    34    18     4    1
    35    17     8    1
    36    14     9   ar
    37    33    29    1
    38    19    22    1
@<TRIPOS>MOLECULE
*****
 34 38 0 0 0
SMALL
GASTEIGER

@<TRIPOS>ATOM
      1 C         141.4130  142.3812  165.3597 C.3     1  UNL1        0.0765
      2 C         140.5678  142.6791  166.5626 C.3     1  UNL1        0.0091
      3 C         139.5639  143.7246  166.1763 C.3     1  UNL1        0.0005
      4 C         139.7887  144.0728  164.7348 C.3     1  UNL1        0.0005
      5 C         138.6663  144.8321  165.3780 C.3     1  UNL1        0.0000
      6 C         139.1004  145.0388  163.8165 C.3     1  UNL1        0.0003
      7 C         139.5549  145.1744  162.3935 C.3     1  UNL1        0.0043
      8 C         140.6977  144.3442  161.8888 C.3     1  UNL1        0.0220
      9 C         141.1522  144.4798  160.4657 C.ar    1  UNL1       -0.0263
     10 C         140.4639  145.4457  159.5474 C.ar    1  UNL1       -0.0015
     11 C         140.9185  145.5814  158.1244 C.ar    1  UNL1        0.0366
     12 C         142.0612  144.7511  157.6197 C.ar    1  UNL1        0.1382
     13 C         142.7495  143.7853  158.5380 C.ar    1  UNL1        0.0323
     14 C         142.2950  143.6496  159.9610 C.ar    1  UNL1       -0.0231
     15 C         142.9833  142.6837  160.8793 C.3     1  UNL1        0.0261
     16 C         142.5288  142.5481  162.3023 C.3     1  UNL1        0.0050
     17 C         141.3860  143.3783  162.8070 C.3     1  UNL1        0.0048
     18 C         140.9315  143.2426  164.2301 C.3     1  UNL1        0.0089
     19 N         142.2524  139.9348  165.1136 N.am    1  UNL1       -0.3043
     20 C         142.5416  141.3951  165.2975 C.2     1  UNL1        0.2220
     21 O         143.9594  141.8693  165.4192 O.2     1  UNL1       -0.2751
     22 H         141.3218  139.6235  165.0338 H       1  UNL1        0.1494
     23 C         143.7879  138.1959  166.2834 C.3     1  UNL1        0.0230
     24 C         143.3810  138.9487  165.0514 C.3     1  UNL1        0.0894
     25 O         142.5157  144.8868  156.1966 O.3     1  UNL1       -0.4754
     26 C         141.8292  144.1098  155.1127 C.3     1  UNL1        0.2068
     27 C         141.7019  142.6193  155.2238 C.3     1  UNL1        0.0646
     28 C         140.3624  141.9988  155.4896 C.3     1  UNL1        0.0759
     29 N         139.8071  141.9814  156.8829 N.3     1  UNL1       -0.2738
     30 C         138.6504  142.7961  157.3813 C.3     1  UNL1        0.0721
     31 C         138.4394  142.4645  158.8288 C.3     1  UNL1        0.0187
     32 C         139.4657  141.4448  159.2251 C.3     1  UNL1        0.0174
     33 C         140.3109  141.1463  158.0225 C.3     1  UNL1        0.0576
     34 C         141.4586  140.1819  157.9689 C.3     1  UNL1        0.0173
@<TRIPOS>BOND
     1    23    24    1
     2    24    19    1
     3    19    20   am
     4    20    21    2
     5     1    20    1
     6     1     2    1
     7     2     3    1
     8     3     4    1
     9     4     5    1
    10     4     6    1
    11     6     7    1
    12     8     7    1
    13     8     9    1
    14     9    10   ar
    15    10    11   ar
    16    11    12   ar
    17    12    25    1
    18    25    26    1
    19    26    27    1
    20    27    28    1
    21    28    29    1
    22    29    30    1
    23    30    31    1
    24    31    32    1
    25    32    33    1
    26    33    34    1
    27    12    13   ar
    28    13    14   ar
    29    14    15    1
    30    15    16    1
    31    17    16    1
    32    17    18    1
    33    18     1    1
    34    18     4    1
    35    17     8    1
    36    14     9   ar
    37    33    29    1
    38    19    22    1
