@<TRIPOS>MOLECULE
*****
 23 25 0 0 0
SMALL
GASTEIGER

@<TRIPOS>ATOM
      1 C         139.9992  138.0650  163.9958 C.ar    1  UNL1        0.1386
      2 C         138.6925  138.2622  164.7053 C.ar    1  UNL1        0.0369
      3 C         138.6403  139.0642  165.9718 C.ar    1  UNL1        0.0046
      4 C         139.8948  139.6691  166.5287 C.ar    1  UNL1        0.0191
      5 C         141.2016  139.4719  165.8192 C.ar    1  UNL1        0.0046
      6 C         141.2538  138.6698  164.5527 C.ar    1  UNL1        0.0369
      7 C         139.8426  140.4711  167.7952 C.2     1  UNL1        0.0968
      8 C         140.4877  141.8241  167.8533 C.2     1  UNL1        0.0043
      9 C         140.4355  142.6261  169.1199 C.3     1  UNL1        0.1163
     10 C         139.7381  142.0752  170.3282 C.2     1  UNL1        0.2671
     11 O         139.6859  142.8772  171.5947 O.2     1  UNL1       -0.2711
     12 N         139.0930  140.7222  170.2701 N.am    1  UNL1       -0.0790
     13 N         139.1453  139.9202  169.0036 N.2     1  UNL1       -0.1564
     14 O         140.0514  137.2629  162.7293 O.3     1  UNL1       -0.4754
     15 C         139.8777  137.9425  161.4034 C.3     1  UNL1        0.2068
     16 C         138.8305  139.0034  161.2359 C.3     1  UNL1        0.0646
     17 C         139.2130  140.4522  161.3038 C.3     1  UNL1        0.0759
     18 C         141.3675  142.0954  163.1224 C.3     1  UNL1        0.0173
     19 C         139.8903  142.0090  163.3683 C.3     1  UNL1        0.0576
     20 C         139.1442  142.6627  164.4934 C.3     1  UNL1        0.0174
     21 C         137.6926  142.3115  164.3528 C.3     1  UNL1        0.0187
     22 C         137.5418  141.4407  163.1409 C.3     1  UNL1        0.0721
     23 N         138.9000  141.2537  162.5324 N.3     1  UNL1       -0.2738
@<TRIPOS>BOND
     1    19    18    1
     2    19    20    1
     3    20    21    1
     4    21    22    1
     5    22    23    1
     6    23    17    1
     7    17    16    1
     8    16    15    1
     9    15    14    1
    10    14     1    1
    11     1     2   ar
    12     2     3   ar
    13     3     4   ar
    14     4     7    1
    15     7     8    2
    16     8     9    1
    17     9    10    1
    18    10    11    2
    19    10    12    1
    20    12    13    2
    21     4     5   ar
    22     5     6   ar
    23    23    19    1
    24     6     1   ar
    25    13     7    1
@<TRIPOS>MOLECULE
*****
 23 25 0 0 0
SMALL
GASTEIGER

@<TRIPOS>ATOM
      1 C         140.2400  138.0288  164.1187 C.ar    1  UNL1        0.1386
      2 C         141.4748  138.5587  164.7855 C.ar    1  UNL1        0.0369
      3 C         141.3585  139.3796  166.0355 C.ar    1  UNL1        0.0046
      4 C         140.0076  139.6707  166.6187 C.ar    1  UNL1        0.0191
      5 C         138.7728  139.1409  165.9519 C.ar    1  UNL1        0.0046
      6 C         138.8890  138.3199  164.7020 C.ar    1  UNL1        0.0369
      7 C         139.8914  140.4917  167.8687 C.2     1  UNL1        0.0968
      8 C         140.5017  141.8607  167.9264 C.2     1  UNL1        0.0043
      9 C         140.3855  142.6817  169.1764 C.3     1  UNL1        0.1163
     10 C         139.6590  142.1337  170.3688 C.2     1  UNL1        0.2671
     11 O         139.5428  142.9546  171.6188 O.2     1  UNL1       -0.2711
     12 N         139.0486  140.7646  170.3111 N.am    1  UNL1       -0.0790
     13 N         139.1648  139.9437  169.0611 N.2     1  UNL1       -0.1564
     14 O         140.3562  137.2078  162.8687 O.3     1  UNL1       -0.4754
     15 C         140.4844  137.8845  161.5362 C.3     1  UNL1        0.2068
     16 C         139.4151  138.8264  161.0674 C.3     1  UNL1        0.0646
     17 C         139.7075  140.2926  160.9467 C.3     1  UNL1        0.0759
     18 C         137.3953  141.3469  162.9940 C.3     1  UNL1        0.0173
     19 C         138.8680  141.6013  163.1210 C.3     1  UNL1        0.0576
     20 C         139.5366  142.3851  164.2112 C.3     1  UNL1        0.0174
     21 C         141.0126  142.3849  163.9440 C.3     1  UNL1        0.0187
     22 C         141.2563  141.6011  162.6886 C.3     1  UNL1        0.0721
     23 N         139.9309  141.1168  162.1799 N.3     1  UNL1       -0.2738
@<TRIPOS>BOND
     1    19    18    1
     2    19    20    1
     3    20    21    1
     4    21    22    1
     5    22    23    1
     6    23    17    1
     7    17    16    1
     8    16    15    1
     9    15    14    1
    10    14     1    1
    11     1     2   ar
    12     2     3   ar
    13     3     4   ar
    14     4     7    1
    15     7     8    2
    16     8     9    1
    17     9    10    1
    18    10    11    2
    19    10    12    1
    20    12    13    2
    21     4     5   ar
    22     5     6   ar
    23    23    19    1
    24     6     1   ar
    25    13     7    1
@<TRIPOS>MOLECULE
*****
 23 25 0 0 0
SMALL
GASTEIGER

@<TRIPOS>ATOM
      1 C         142.5020  139.2372  164.0131 C.ar    1  UNL1        0.1386
      2 C         142.7982  138.3907  165.2155 C.ar    1  UNL1        0.0369
      3 C         142.4616  138.8935  166.5880 C.ar    1  UNL1        0.0046
      4 C         141.8289  140.2429  166.7582 C.ar    1  UNL1        0.0191
      5 C         141.5328  141.0894  165.5558 C.ar    1  UNL1        0.0046
      6 C         141.8693  140.5865  164.1833 C.ar    1  UNL1        0.0369
      7 C         141.4924  140.7457  168.1308 C.2     1  UNL1        0.0968
      8 C         140.1226  140.5180  168.6980 C.2     1  UNL1        0.0043
      9 C         139.7861  141.0209  170.0706 C.3     1  UNL1        0.1163
     10 C         140.8194  141.7514  170.8759 C.2     1  UNL1        0.2671
     11 O         140.4829  142.2542  172.2485 O.2     1  UNL1       -0.2711
     12 N         142.1893  141.9791  170.3087 N.am    1  UNL1       -0.0790
     13 N         142.5257  141.4762  168.9361 N.2     1  UNL1       -0.1564
     14 O         142.8385  138.7343  162.6405 O.3     1  UNL1       -0.4754
     15 C         141.8734  137.8499  161.9083 C.3     1  UNL1        0.2068
     16 C         140.5480  138.3931  161.4627 C.3     1  UNL1        0.0646
     17 C         139.2856  137.9286  162.1265 C.3     1  UNL1        0.0759
     18 C         137.9658  140.8224  162.8567 C.3     1  UNL1        0.0173
     19 C         138.3310  139.7474  163.8369 C.3     1  UNL1        0.0576
     20 C         138.1536  139.8137  165.3249 C.3     1  UNL1        0.0174
     21 C         138.6506  138.5245  165.9090 C.3     1  UNL1        0.0187
     22 C         139.1352  137.6615  164.7819 C.3     1  UNL1        0.0721
     23 N         138.9376  138.4172  163.5013 N.3     1  UNL1       -0.2738
@<TRIPOS>BOND
     1    19    18    1
     2    19    20    1
     3    20    21    1
     4    21    22    1
     5    22    23    1
     6    23    17    1
     7    17    16    1
     8    16    15    1
     9    15    14    1
    10    14     1    1
    11     1     2   ar
    12     2     3   ar
    13     3     4   ar
    14     4     7    1
    15     7     8    2
    16     8     9    1
    17     9    10    1
    18    10    11    2
    19    10    12    1
    20    12    13    2
    21     4     5   ar
    22     5     6   ar
    23    23    19    1
    24     6     1   ar
    25    13     7    1
@<TRIPOS>MOLECULE
*****
 23 25 0 0 0
SMALL
GASTEIGER

@<TRIPOS>ATOM
      1 C         138.5204  138.8552  163.6771 C.ar    1  UNL1        0.1386
      2 C         139.1306  137.9603  164.7147 C.ar    1  UNL1        0.0369
      3 C         139.4715  138.5066  166.0694 C.ar    1  UNL1        0.0046
      4 C         139.2021  139.9477  166.3865 C.ar    1  UNL1        0.0191
      5 C         138.5919  140.8426  165.3489 C.ar    1  UNL1        0.0046
      6 C         138.2510  140.2963  163.9942 C.ar    1  UNL1        0.0369
      7 C         139.5430  140.4939  167.7413 C.2     1  UNL1        0.0968
      8 C         140.3990  141.7198  167.8621 C.2     1  UNL1        0.0043
      9 C         140.7399  142.2660  169.2169 C.3     1  UNL1        0.1163
     10 C         140.2248  141.5864  170.4509 C.2     1  UNL1        0.2671
     11 O         140.5657  142.1325  171.8057 O.2     1  UNL1       -0.2711
     12 N         139.3688  140.3605  170.3301 N.am    1  UNL1       -0.0790
     13 N         139.0280  139.8143  168.9753 N.2     1  UNL1       -0.1564
     14 O         138.1794  138.3089  162.3222 O.3     1  UNL1       -0.4754
     15 C         139.2280  138.2512  161.2512 C.3     1  UNL1        0.2068
     16 C         140.0714  139.4575  160.9616 C.3     1  UNL1        0.0646
     17 C         141.5405  139.4355  161.2636 C.3     1  UNL1        0.0759
     18 C         141.5177  142.0020  163.2791 C.3     1  UNL1        0.0173
     19 C         142.0032  140.6227  163.6134 C.3     1  UNL1        0.0576
     20 C         142.5634  140.1809  164.9328 C.3     1  UNL1        0.0174
     21 C         142.9202  138.7281  164.8219 C.3     1  UNL1        0.0187
     22 C         142.5804  138.2721  163.4339 C.3     1  UNL1        0.0721
     23 N         142.0137  139.4430  162.6870 N.3     1  UNL1       -0.2738
@<TRIPOS>BOND
     1    19    18    1
     2    19    20    1
     3    20    21    1
     4    21    22    1
     5    22    23    1
     6    23    17    1
     7    17    16    1
     8    16    15    1
     9    15    14    1
    10    14     1    1
    11     1     2   ar
    12     2     3   ar
    13     3     4   ar
    14     4     7    1
    15     7     8    2
    16     8     9    1
    17     9    10    1
    18    10    11    2
    19    10    12    1
    20    12    13    2
    21     4     5   ar
    22     5     6   ar
    23    23    19    1
    24     6     1   ar
    25    13     7    1
@<TRIPOS>MOLECULE
*****
 23 25 0 0 0
SMALL
GASTEIGER

@<TRIPOS>ATOM
      1 C         141.7253  138.2416  164.3553 C.ar    1  UNL1        0.1386
      2 C         140.3538  138.6907  164.7640 C.ar    1  UNL1        0.0369
      3 C         140.1472  139.3556  166.0926 C.ar    1  UNL1        0.0046
      4 C         141.3122  139.5714  167.0125 C.ar    1  UNL1        0.0191
      5 C         142.6838  139.1223  166.6038 C.ar    1  UNL1        0.0046
      6 C         142.8903  138.4574  165.2752 C.ar    1  UNL1        0.0369
      7 C         141.1056  140.2363  168.3412 C.2     1  UNL1        0.0968
      8 C         142.1126  141.2248  168.8498 C.2     1  UNL1        0.0043
      9 C         141.9060  141.8898  170.1785 C.3     1  UNL1        0.1163
     10 C         140.6924  141.5660  170.9985 C.2     1  UNL1        0.2671
     11 O         140.4857  142.2309  172.3271 O.2     1  UNL1       -0.2711
     12 N         139.6854  140.5774  170.4898 N.am    1  UNL1       -0.0790
     13 N         139.8920  139.9126  169.1612 N.2     1  UNL1       -0.1564
     14 O         141.9319  137.5767  163.0267 O.3     1  UNL1       -0.4754
     15 C         142.5844  138.3290  161.9049 C.3     1  UNL1        0.2068
     16 C         142.2252  139.7639  161.6554 C.3     1  UNL1        0.0646
     17 C         143.2022  140.8511  161.9924 C.3     1  UNL1        0.0759
     18 C         145.7447  141.5399  163.9186 C.3     1  UNL1        0.0173
     19 C         144.3063  141.8462  164.2140 C.3     1  UNL1        0.0576
     20 C         143.7841  142.5228  165.4466 C.3     1  UNL1        0.0174
     21 C         142.2926  142.6245  165.3230 C.3     1  UNL1        0.0187
     22 C         141.8931  142.0106  164.0140 C.3     1  UNL1        0.0721
     23 N         143.1376  141.5295  163.3286 N.3     1  UNL1       -0.2738
@<TRIPOS>BOND
     1    19    18    1
     2    19    20    1
     3    20    21    1
     4    21    22    1
     5    22    23    1
     6    23    17    1
     7    17    16    1
     8    16    15    1
     9    15    14    1
    10    14     1    1
    11     1     2   ar
    12     2     3   ar
    13     3     4   ar
    14     4     7    1
    15     7     8    2
    16     8     9    1
    17     9    10    1
    18    10    11    2
    19    10    12    1
    20    12    13    2
    21     4     5   ar
    22     5     6   ar
    23    23    19    1
    24     6     1   ar
    25    13     7    1
@<TRIPOS>MOLECULE
*****
 23 25 0 0 0
SMALL
GASTEIGER

@<TRIPOS>ATOM
      1 C         142.7469  143.8457  164.3029 C.ar    1  UNL1        0.1386
      2 C         141.2503  143.9259  164.3630 C.ar    1  UNL1        0.0369
      3 C         140.5045  143.2169  165.4543 C.ar    1  UNL1        0.0046
      4 C         141.2553  142.4278  166.4856 C.ar    1  UNL1        0.0191
      5 C         142.7519  142.3476  166.4256 C.ar    1  UNL1        0.0046
      6 C         143.4977  143.0565  165.3342 C.ar    1  UNL1        0.0369
      7 C         140.5093  141.7188  167.5770 C.2     1  UNL1        0.0968
      8 C         140.4156  142.3325  168.9424 C.2     1  UNL1        0.0043
      9 C         139.6697  141.6236  170.0338 C.3     1  UNL1        0.1163
     10 C         139.0175  140.3009  169.7597 C.2     1  UNL1        0.2671
     11 O         138.2717  139.5919  170.8510 O.2     1  UNL1       -0.2711
     12 N         139.1113  139.6872  168.3941 N.am    1  UNL1       -0.0790
     13 N         139.8572  140.3961  167.3028 N.2     1  UNL1       -0.1564
     14 O         143.4928  144.5547  163.2115 O.3     1  UNL1       -0.4754
     15 C         144.4509  143.7954  162.3423 C.3     1  UNL1        0.2068
     16 C         143.9491  142.6921  161.4585 C.3     1  UNL1        0.0646
     17 C         144.1785  141.2604  161.8425 C.3     1  UNL1        0.0759
     18 C         144.9807  139.3724  164.3804 C.3     1  UNL1        0.0173
     19 C         143.5877  139.7004  163.9310 C.3     1  UNL1        0.0576
     20 C         142.3189  139.2181  164.5693 C.3     1  UNL1        0.0174
     21 C         141.1659  139.7879  163.7972 C.3     1  UNL1        0.0187
     22 C         141.7222  140.6223  162.6818 C.3     1  UNL1        0.0721
     23 N         143.2190  140.5682  162.7645 N.3     1  UNL1       -0.2738
@<TRIPOS>BOND
     1    19    18    1
     2    19    20    1
     3    20    21    1
     4    21    22    1
     5    22    23    1
     6    23    17    1
     7    17    16    1
     8    16    15    1
     9    15    14    1
    10    14     1    1
    11     1     2   ar
    12     2     3   ar
    13     3     4   ar
    14     4     7    1
    15     7     8    2
    16     8     9    1
    17     9    10    1
    18    10    11    2
    19    10    12    1
    20    12    13    2
    21     4     5   ar
    22     5     6   ar
    23    23    19    1
    24     6     1   ar
    25    13     7    1
@<TRIPOS>MOLECULE
*****
 23 25 0 0 0
SMALL
GASTEIGER

@<TRIPOS>ATOM
      1 C         141.3861  141.2554  163.2952 C.ar    1  UNL1        0.1386
      2 C         142.5515  141.6845  164.1364 C.ar    1  UNL1        0.0369
      3 C         142.3876  141.8453  165.6187 C.ar    1  UNL1        0.0046
      4 C         141.0582  141.5769  166.2597 C.ar    1  UNL1        0.0191
      5 C         139.8929  141.1478  165.4185 C.ar    1  UNL1        0.0046
      6 C         140.0568  140.9871  163.9362 C.ar    1  UNL1        0.0369
      7 C         140.8943  141.7377  167.7421 C.2     1  UNL1        0.0968
      8 C         140.4591  143.0560  168.3100 C.2     1  UNL1        0.0043
      9 C         140.2952  143.2168  169.7923 C.3     1  UNL1        0.1163
     10 C         140.5665  142.0591  170.7068 C.2     1  UNL1        0.2671
     11 O         140.4027  142.2199  172.1891 O.2     1  UNL1       -0.2711
     12 N         141.0018  140.7407  170.1389 N.am    1  UNL1       -0.0790
     13 N         141.1656  140.5800  168.6566 N.2     1  UNL1       -0.1564
     14 O         141.5500  141.0947  161.8128 O.3     1  UNL1       -0.4754
     15 C         141.3717  142.2761  160.9060 C.3     1  UNL1        0.2068
     16 C         140.0104  142.8768  160.7157 C.3     1  UNL1        0.0646
     17 C         139.6933  144.2184  161.3069 C.3     1  UNL1        0.0759
     18 C         141.5163  145.1620  163.8437 C.3     1  UNL1        0.0173
     19 C         140.0737  144.7546  163.8978 C.3     1  UNL1        0.0576
     20 C         139.2159  144.7094  165.1274 C.3     1  UNL1        0.0174
     21 C         137.8476  144.2478  164.7213 C.3     1  UNL1        0.0187
     22 C         137.8600  144.0076  163.2407 C.3     1  UNL1        0.0721
     23 N         139.2358  144.3209  162.7317 N.3     1  UNL1       -0.2738
@<TRIPOS>BOND
     1    19    18    1
     2    19    20    1
     3    20    21    1
     4    21    22    1
     5    22    23    1
     6    23    17    1
     7    17    16    1
     8    16    15    1
     9    15    14    1
    10    14     1    1
    11     1     2   ar
    12     2     3   ar
    13     3     4   ar
    14     4     7    1
    15     7     8    2
    16     8     9    1
    17     9    10    1
    18    10    11    2
    19    10    12    1
    20    12    13    2
    21     4     5   ar
    22     5     6   ar
    23    23    19    1
    24     6     1   ar
    25    13     7    1
@<TRIPOS>MOLECULE
*****
 23 25 0 0 0
SMALL
GASTEIGER

@<TRIPOS>ATOM
      1 C         143.2809  142.4200  163.8315 C.ar    1  UNL1        0.1386
      2 C         141.8707  142.0079  164.1336 C.ar    1  UNL1        0.0369
      3 C         141.3894  141.9661  165.5537 C.ar    1  UNL1        0.0046
      4 C         142.3184  142.3364  166.6716 C.ar    1  UNL1        0.0191
      5 C         143.7287  142.7485  166.3695 C.ar    1  UNL1        0.0046
      6 C         144.2099  142.7903  164.9495 C.ar    1  UNL1        0.0369
      7 C         141.8371  142.2946  168.0918 C.2     1  UNL1        0.0968
      8 C         140.4772  141.7458  168.4069 C.2     1  UNL1        0.0043
      9 C         139.9958  141.7040  169.8270 C.3     1  UNL1        0.1163
     10 C         140.8745  142.2110  170.9319 C.2     1  UNL1        0.2671
     11 O         140.3933  142.1692  172.3520 O.2     1  UNL1       -0.2711
     12 N         142.2345  142.7598  170.6167 N.am    1  UNL1       -0.0790
     13 N         142.7158  142.8016  169.1967 N.2     1  UNL1       -0.1564
     14 O         143.7623  142.4618  162.4114 O.3     1  UNL1       -0.4754
     15 C         144.6716  141.3861  161.8958 C.3     1  UNL1        0.2068
     16 C         144.1534  139.9906  161.7113 C.3     1  UNL1        0.0646
     17 C         144.1727  139.0255  162.8594 C.3     1  UNL1        0.0759
     18 C         143.2133  138.7430  165.9657 C.3     1  UNL1        0.0173
     19 C         142.4542  138.2692  164.7618 C.3     1  UNL1        0.0576
     20 C         141.1207  137.5823  164.7745 C.3     1  UNL1        0.0174
     21 C         140.7376  137.2876  163.3545 C.3     1  UNL1        0.0187
     22 C         141.8342  137.7924  162.4642 C.3     1  UNL1        0.0721
     23 N         142.8951  138.3990  163.3340 N.3     1  UNL1       -0.2738
@<TRIPOS>BOND
     1    19    18    1
     2    19    20    1
     3    20    21    1
     4    21    22    1
     5    22    23    1
     6    23    17    1
     7    17    16    1
     8    16    15    1
     9    15    14    1
    10    14     1    1
    11     1     2   ar
    12     2     3   ar
    13     3     4   ar
    14     4     7    1
    15     7     8    2
    16     8     9    1
    17     9    10    1
    18    10    11    2
    19    10    12    1
    20    12    13    2
    21     4     5   ar
    22     5     6   ar
    23    23    19    1
    24     6     1   ar
    25    13     7    1
@<TRIPOS>MOLECULE
*****
 23 25 0 0 0
SMALL
GASTEIGER

@<TRIPOS>ATOM
      1 C         143.8980  139.6503  164.9411 C.ar    1  UNL1        0.1386
      2 C         143.5903  141.1183  164.9453 C.ar    1  UNL1        0.0369
      3 C         142.7992  141.7156  166.0711 C.ar    1  UNL1        0.0046
      4 C         142.3158  140.8448  167.1927 C.ar    1  UNL1        0.0191
      5 C         142.6234  139.3767  167.1885 C.ar    1  UNL1        0.0046
      6 C         143.4145  138.7794  166.0627 C.ar    1  UNL1        0.0369
      7 C         141.5246  141.4421  168.3185 C.2     1  UNL1        0.0968
      8 C         140.2451  140.7965  168.7612 C.2     1  UNL1        0.0043
      9 C         139.4540  141.3938  169.8870 C.3     1  UNL1        0.1163
     10 C         139.9424  142.6368  170.5700 C.2     1  UNL1        0.2671
     11 O         139.1513  143.2341  171.6958 O.2     1  UNL1       -0.2711
     12 N         141.2220  143.2824  170.1272 N.am    1  UNL1       -0.0790
     13 N         142.0130  142.6850  169.0015 N.2     1  UNL1       -0.1564
     14 O         144.6891  139.0529  163.8153 O.3     1  UNL1       -0.4754
     15 C         144.0175  138.7362  162.5121 C.3     1  UNL1        0.2068
     16 C         142.6583  138.1015  162.5035 C.3     1  UNL1        0.0646
     17 C         141.4545  138.9120  162.1245 C.3     1  UNL1        0.0759
     18 C         140.1408  137.5373  164.7767 C.3     1  UNL1        0.0173
     19 C         140.0591  138.9878  164.4031 C.3     1  UNL1        0.0576
     20 C         139.3592  140.0609  165.1831 C.3     1  UNL1        0.0174
     21 C         139.5305  141.3562  164.4461 C.3     1  UNL1        0.0187
     22 C         140.3362  141.0834  163.2106 C.3     1  UNL1        0.0721
     23 N         140.6629  139.6196  163.1841 N.3     1  UNL1       -0.2738
@<TRIPOS>BOND
     1    19    18    1
     2    19    20    1
     3    20    21    1
     4    21    22    1
     5    22    23    1
     6    23    17    1
     7    17    16    1
     8    16    15    1
     9    15    14    1
    10    14     1    1
    11     1     2   ar
    12     2     3   ar
    13     3     4   ar
    14     4     7    1
    15     7     8    2
    16     8     9    1
    17     9    10    1
    18    10    11    2
    19    10    12    1
    20    12    13    2
    21     4     5   ar
    22     5     6   ar
    23    23    19    1
    24     6     1   ar
    25    13     7    1
