@<TRIPOS>MOLECULE
*****
 36 40 0 0 0
SMALL
GASTEIGER

@<TRIPOS>ATOM
      1 C         138.5194  141.7762  160.1455 C.ar    1  UNL1        0.2512
      2 N         138.0409  140.7559  159.1556 N.ar    1  UNL1       -0.1058
      3 N         138.0294  141.3960  157.7990 N.ar    1  UNL1       -0.0923
      4 C         138.5007  142.8119  157.9506 C.ar    1  UNL1        0.3086
      5 O         138.8036  143.0469  159.4008 O.2     1  UNL1       -0.4048
      6 C         139.0151  141.1374  164.5723 C.ar    1  UNL1        0.0505
      7 C         139.9116  140.4212  163.6061 C.ar    1  UNL1        0.0148
      8 C         139.7464  140.6341  162.1305 C.ar    1  UNL1        0.0060
      9 C         138.6846  141.5633  161.6211 C.ar    1  UNL1        0.0553
     10 C         137.7882  142.2794  162.5873 C.ar    1  UNL1        0.0060
     11 C         137.9534  142.0665  164.0629 C.ar    1  UNL1        0.0148
     12 O         141.2322  142.5182  166.0480 O.2     1  UNL1       -0.2697
     13 C         140.2889  141.6149  166.7857 C.2     1  UNL1        0.2517
     14 N         139.1804  140.9245  166.0479 N.am    1  UNL1       -0.2803
     15 H         138.5613  140.3316  166.5321 H       1  UNL1        0.1552
     16 C         140.4542  141.4020  168.2613 C.ar    1  UNL1        0.0811
     17 C         140.7278  140.0270  168.7947 C.ar    1  UNL1        0.0068
     18 C         140.8931  139.8142  170.2704 C.ar    1  UNL1        0.0003
     19 C         140.7849  140.9763  171.2125 C.ar    1  UNL1        0.0023
     20 C         140.5114  142.3513  170.6791 C.ar    1  UNL1        0.0298
     21 C         140.3460  142.5641  169.2034 C.ar    1  UNL1        0.1445
     22 F         140.0725  143.9391  168.6700 F       1  UNL1       -0.2040
     23 N         138.6441  143.8165  156.8459 N.pl3   1  UNL1       -0.2871
     24 H         137.8961  143.9769  156.2263 H       1  UNL1        0.1512
     25 C         139.9272  144.5765  156.6853 C.3     1  UNL1        0.0925
     26 C         140.2543  145.7022  157.6211 C.3     1  UNL1        0.0386
     27 C         141.3096  145.5218  158.6717 C.3     1  UNL1        0.0738
     28 N         140.7350  145.3290  160.7865 N.3     1  UNL1       -0.2726
     29 C         140.0854  145.8753  161.0627 C.3     1  UNL1        0.0896
     30 C         139.7278  145.9721  161.7792 C.3     1  UNL1        0.0896
     31 N         139.7812  145.5022  162.9319 N.3     1  UNL1       -0.2714
     32 C         140.2798  145.2201  162.3406 C.3     1  UNL1        0.0735
     33 C         141.1335  144.7028  161.4223 C.3     1  UNL1        0.0333
     34 C         141.6694  144.3581  160.9008 C.3     1  UNL1        0.0603
     35 C         141.6784  143.8403  162.3085 C.3     1  UNL1        0.0333
     36 C         140.7343  144.4124  163.3241 C.3     1  UNL1        0.0735
@<TRIPOS>BOND
     1    12    13    2
     2    13    14   am
     3    14     6    1
     4     6     7   ar
     5     7     8   ar
     6     8     9   ar
     7     9     1    1
     8     1     2   ar
     9     2     3   ar
    10     3     4   ar
    11     4    23    1
    12    23    25    1
    13    25    26    1
    14    26    27    1
    15    27    28    1
    16    28    29    1
    17    29    30    1
    18    30    31    1
    19    31    32    1
    20    32    33    1
    21    33    34    1
    22    34    35    1
    23    35    36    1
    24     4     5   ar
    25     9    10   ar
    26    10    11   ar
    27    13    16    1
    28    16    17   ar
    29    17    18   ar
    30    18    19   ar
    31    19    20   ar
    32    20    21   ar
    33    21    22    1
    34    11     6   ar
    35    21    16   ar
    36     5     1   ar
    37    34    28    1
    38    36    31    1
    39    14    15    1
    40    23    24    1
@<TRIPOS>MOLECULE
*****
 36 40 0 0 0
SMALL
GASTEIGER

@<TRIPOS>ATOM
      1 C         138.7305  139.1721  166.6156 C.ar    1  UNL1        0.2512
      2 N         137.6650  138.4711  167.4049 N.ar    1  UNL1       -0.1058
      3 N         137.7193  138.9832  168.8138 N.ar    1  UNL1       -0.0923
      4 C         138.8184  140.0006  168.8951 C.ar    1  UNL1        0.3086
      5 O         139.4434  140.1174  167.5365 O.2     1  UNL1       -0.4048
      6 C         139.6307  138.5486  162.2508 C.ar    1  UNL1        0.0505
      7 C         140.0265  137.5065  163.2545 C.ar    1  UNL1        0.0148
      8 C         139.7264  137.7143  164.7095 C.ar    1  UNL1        0.0060
      9 C         139.0306  138.9642  165.1607 C.ar    1  UNL1        0.0553
     10 C         138.6349  140.0063  164.1569 C.ar    1  UNL1        0.0060
     11 C         138.9349  139.7985  162.7020 C.ar    1  UNL1        0.0148
     12 O         142.0024  139.8951  161.0012 O.2     1  UNL1       -0.2697
     13 C         141.1166  139.0140  160.1711 C.2     1  UNL1        0.2517
     14 N         139.9308  138.3408  160.7959 N.am    1  UNL1       -0.2803
     15 H         139.3495  137.7625  160.2511 H       1  UNL1        0.1552
     16 C         141.4168  138.8062  158.7162 C.ar    1  UNL1        0.0811
     17 C         140.7224  139.6400  157.6805 C.ar    1  UNL1        0.0068
     18 C         141.0226  139.4322  156.2256 C.ar    1  UNL1        0.0003
     19 C         142.0172  138.3905  155.8064 C.ar    1  UNL1        0.0023
     20 C         142.7116  137.5568  156.8421 C.ar    1  UNL1        0.0298
     21 C         142.4114  137.7646  158.2970 C.ar    1  UNL1        0.1445
     22 F         143.1058  136.9308  159.3326 F       1  UNL1       -0.2040
     23 N         139.2217  140.7669  170.1200 N.pl3   1  UNL1       -0.2871
     24 H         138.5798  141.3739  170.5544 H       1  UNL1        0.1512
     25 C         140.6029  140.6082  170.6829 C.3     1  UNL1        0.0925
     26 C         141.5642  139.6455  170.0512 C.3     1  UNL1        0.0386
     27 C         142.7139  140.1594  169.2363 C.3     1  UNL1        0.0738
     28 N         142.8737  139.6346  167.1058 N.3     1  UNL1       -0.2726
     29 C         143.0931  138.7872  166.9311 C.3     1  UNL1        0.0896
     30 C         143.2036  138.3885  166.2387 C.3     1  UNL1        0.0896
     31 N         143.1639  138.5995  165.0114 N.3     1  UNL1       -0.2714
     32 C         143.0025  139.2042  165.5462 C.3     1  UNL1        0.0735
     33 C         142.7243  140.2511  166.3625 C.3     1  UNL1        0.0333
     34 C         142.5486  140.9150  166.8167 C.3     1  UNL1        0.0603
     35 C         142.5197  141.0964  165.3281 C.3     1  UNL1        0.0333
     36 C         142.8273  139.9386  164.4254 C.3     1  UNL1        0.0735
@<TRIPOS>BOND
     1    12    13    2
     2    13    14   am
     3    14     6    1
     4     6     7   ar
     5     7     8   ar
     6     8     9   ar
     7     9     1    1
     8     1     2   ar
     9     2     3   ar
    10     3     4   ar
    11     4    23    1
    12    23    25    1
    13    25    26    1
    14    26    27    1
    15    27    28    1
    16    28    29    1
    17    29    30    1
    18    30    31    1
    19    31    32    1
    20    32    33    1
    21    33    34    1
    22    34    35    1
    23    35    36    1
    24     4     5   ar
    25     9    10   ar
    26    10    11   ar
    27    13    16    1
    28    16    17   ar
    29    17    18   ar
    30    18    19   ar
    31    19    20   ar
    32    20    21   ar
    33    21    22    1
    34    11     6   ar
    35    21    16   ar
    36     5     1   ar
    37    34    28    1
    38    36    31    1
    39    14    15    1
    40    23    24    1
@<TRIPOS>MOLECULE
*****
 36 40 0 0 0
SMALL
GASTEIGER

@<TRIPOS>ATOM
      1 C         141.7405  141.8853  163.0382 C.ar    1  UNL1        0.2512
      2 N         142.1379  142.3353  164.4128 N.ar    1  UNL1       -0.1058
      3 N         141.0551  141.9244  165.3661 N.ar    1  UNL1       -0.0923
      4 C         139.9886  141.2206  164.5807 C.ar    1  UNL1        0.3086
      5 O         140.4121  141.1964  163.1419 O.2     1  UNL1       -0.4048
      6 C         144.1164  142.4951  159.2655 C.ar    1  UNL1        0.0505
      7 C         142.6375  142.2555  159.1900 C.ar    1  UNL1        0.0148
      8 C         141.8456  142.0522  160.4476 C.ar    1  UNL1        0.0060
      9 C         142.5324  142.0886  161.7806 C.ar    1  UNL1        0.0553
     10 C         144.0113  142.3283  161.8560 C.ar    1  UNL1        0.0060
     11 C         144.8033  142.5315  160.5985 C.ar    1  UNL1        0.0148
     12 O         144.8713  140.1377  157.5708 O.2     1  UNL1       -0.2697
     13 C         145.2858  141.5197  157.1605 C.2     1  UNL1        0.2517
     14 N         144.9083  142.6984  158.0078 N.am    1  UNL1       -0.2803
     15 H         145.1804  143.6055  157.7386 H       1  UNL1        0.1552
     16 C         146.0777  141.7229  155.9029 C.ar    1  UNL1        0.0811
     17 C         145.5022  141.3131  154.5797 C.ar    1  UNL1        0.0068
     18 C         146.2943  141.5163  153.3221 C.ar    1  UNL1        0.0003
     19 C         147.6617  142.1293  153.3878 C.ar    1  UNL1        0.0023
     20 C         148.2372  142.5391  154.7110 C.ar    1  UNL1        0.0298
     21 C         147.4452  142.3359  155.9686 C.ar    1  UNL1        0.1445
     22 F         148.0206  142.7456  157.2918 F       1  UNL1       -0.2040
     23 N         138.7209  140.6424  165.1364 N.pl3   1  UNL1       -0.2871
     24 H         137.8633  140.8095  164.6827 H       1  UNL1        0.1512
     25 C         138.7599  139.8098  166.3834 C.3     1  UNL1        0.0925
     26 C         138.0198  138.5063  166.4383 C.3     1  UNL1        0.0386
     27 C         138.4946  137.3392  165.6243 C.3     1  UNL1        0.0738
     28 N         139.3555  137.6688  163.6268 N.3     1  UNL1       -0.2726
     29 C         138.7680  137.8195  162.9719 C.3     1  UNL1        0.0896
     30 C         138.8612  137.9617  162.1834 C.3     1  UNL1        0.0896
     31 N         139.7772  138.0727  161.3461 N.3     1  UNL1       -0.2714
     32 C         139.9480  137.9172  162.1364 C.3     1  UNL1        0.0735
     33 C         140.3102  137.6609  163.4181 C.3     1  UNL1        0.0333
     34 C         140.5782  137.5058  164.1810 C.3     1  UNL1        0.0603
     35 C         141.6283  137.6518  163.1198 C.3     1  UNL1        0.0333
     36 C         141.2277  137.9353  161.7024 C.3     1  UNL1        0.0735
@<TRIPOS>BOND
     1    12    13    2
     2    13    14   am
     3    14     6    1
     4     6     7   ar
     5     7     8   ar
     6     8     9   ar
     7     9     1    1
     8     1     2   ar
     9     2     3   ar
    10     3     4   ar
    11     4    23    1
    12    23    25    1
    13    25    26    1
    14    26    27    1
    15    27    28    1
    16    28    29    1
    17    29    30    1
    18    30    31    1
    19    31    32    1
    20    32    33    1
    21    33    34    1
    22    34    35    1
    23    35    36    1
    24     4     5   ar
    25     9    10   ar
    26    10    11   ar
    27    13    16    1
    28    16    17   ar
    29    17    18   ar
    30    18    19   ar
    31    19    20   ar
    32    20    21   ar
    33    21    22    1
    34    11     6   ar
    35    21    16   ar
    36     5     1   ar
    37    34    28    1
    38    36    31    1
    39    14    15    1
    40    23    24    1
@<TRIPOS>MOLECULE
*****
 36 40 0 0 0
SMALL
GASTEIGER

@<TRIPOS>ATOM
      1 C         138.5402  140.3039  165.8074 C.ar    1  UNL1        0.2512
      2 N         137.7504  139.0930  166.2071 N.ar    1  UNL1       -0.1058
      3 N         138.1052  138.7554  167.6250 N.ar    1  UNL1       -0.0923
      4 C         139.1143  139.7577  168.1014 C.ar    1  UNL1        0.3086
      5 O         139.3831  140.7148  166.9781 O.2     1  UNL1       -0.4048
      6 C         138.4045  142.3456  161.7995 C.ar    1  UNL1        0.0505
      7 C         138.7884  143.1222  163.0242 C.ar    1  UNL1        0.0148
      8 C         138.8336  142.4415  164.3602 C.ar    1  UNL1        0.0060
      9 C         138.4950  140.9845  164.4715 C.ar    1  UNL1        0.0553
     10 C         138.1111  140.2081  163.2468 C.ar    1  UNL1        0.0060
     11 C         138.0659  140.8886  161.9108 C.ar    1  UNL1        0.0148
     12 O         140.8895  142.5396  160.1301 O.2     1  UNL1       -0.2697
     13 C         139.6018  143.1232  159.6289 C.2     1  UNL1        0.2517
     14 N         138.3593  143.0263  160.4635 N.am    1  UNL1       -0.2803
     15 H         137.5142  143.4093  160.1346 H       1  UNL1        0.1552
     16 C         139.5567  143.8038  158.2929 C.ar    1  UNL1        0.0811
     17 C         138.7652  143.2010  157.1704 C.ar    1  UNL1        0.0068
     18 C         138.7201  143.8816  155.8344 C.ar    1  UNL1        0.0003
     19 C         139.4666  145.1651  155.6210 C.ar    1  UNL1        0.0023
     20 C         140.2580  145.7679  156.7436 C.ar    1  UNL1        0.0298
     21 C         140.3031  145.0873  158.0796 C.ar    1  UNL1        0.1445
     22 F         141.0946  145.6901  159.2021 F       1  UNL1       -0.2040
     23 N         139.7440  139.7963  169.4624 N.pl3   1  UNL1       -0.2871
     24 H         139.2845  139.3841  170.2293 H       1  UNL1        0.1512
     25 C         141.0738  140.4629  169.6547 C.3     1  UNL1        0.0925
     26 C         142.3367  139.6596  169.5562 C.3     1  UNL1        0.0386
     27 C         142.7673  139.0980  168.2336 C.3     1  UNL1        0.0738
     28 N         142.6252  140.3301  166.4166 N.3     1  UNL1       -0.2726
     29 C         142.8244  141.1942  166.5181 C.3     1  UNL1        0.0896
     30 C         142.8380  141.8111  165.9985 C.3     1  UNL1        0.0896
     31 N         142.6216  142.0338  164.7919 N.3     1  UNL1       -0.2714
     32 C         142.5333  141.2758  165.1008 C.3     1  UNL1        0.0735
     33 C         142.3660  140.0013  165.5335 C.3     1  UNL1        0.0333
     34 C         142.2516  139.2149  165.7491 C.3     1  UNL1        0.0603
     35 C         142.0086  139.5558  164.3087 C.3     1  UNL1        0.0333
     36 C         142.1936  140.9652  163.8301 C.3     1  UNL1        0.0735
@<TRIPOS>BOND
     1    12    13    2
     2    13    14   am
     3    14     6    1
     4     6     7   ar
     5     7     8   ar
     6     8     9   ar
     7     9     1    1
     8     1     2   ar
     9     2     3   ar
    10     3     4   ar
    11     4    23    1
    12    23    25    1
    13    25    26    1
    14    26    27    1
    15    27    28    1
    16    28    29    1
    17    29    30    1
    18    30    31    1
    19    31    32    1
    20    32    33    1
    21    33    34    1
    22    34    35    1
    23    35    36    1
    24     4     5   ar
    25     9    10   ar
    26    10    11   ar
    27    13    16    1
    28    16    17   ar
    29    17    18   ar
    30    18    19   ar
    31    19    20   ar
    32    20    21   ar
    33    21    22    1
    34    11     6   ar
    35    21    16   ar
    36     5     1   ar
    37    34    28    1
    38    36    31    1
    39    14    15    1
    40    23    24    1
@<TRIPOS>MOLECULE
*****
 36 40 0 0 0
SMALL
GASTEIGER

@<TRIPOS>ATOM
      1 C         141.8558  142.6817  164.2336 C.ar    1  UNL1        0.2512
      2 N         142.9178  143.2647  165.1179 N.ar    1  UNL1       -0.1058
      3 N         143.0686  142.3703  166.3127 N.ar    1  UNL1       -0.0923
      4 C         142.0997  141.2346  166.1667 C.ar    1  UNL1        0.3086
      5 O         141.3501  141.4270  164.8818 O.2     1  UNL1       -0.4048
      6 C         140.4358  144.3957  160.3226 C.ar    1  UNL1        0.0505
      7 C         140.6347  142.9157  160.4647 C.ar    1  UNL1        0.0148
      8 C         141.1080  142.3444  161.7684 C.ar    1  UNL1        0.0060
      9 C         141.3824  143.2530  162.9299 C.ar    1  UNL1        0.0553
     10 C         141.1835  144.7329  162.7878 C.ar    1  UNL1        0.0060
     11 C         140.7102  145.3043  161.4842 C.ar    1  UNL1        0.0148
     12 O         142.3861  145.7262  158.4717 O.2     1  UNL1       -0.2697
     13 C         140.9376  145.6323  158.0935 C.2     1  UNL1        0.2517
     14 N         139.9624  144.9671  159.0189 N.am    1  UNL1       -0.2803
     15 H         139.0117  144.9055  158.7707 H       1  UNL1        0.1552
     16 C         140.4643  146.2036  156.7899 C.ar    1  UNL1        0.0811
     17 C         141.0356  145.6986  155.4981 C.ar    1  UNL1        0.0068
     18 C         140.5622  146.2700  154.1944 C.ar    1  UNL1        0.0003
     19 C         139.5177  147.3465  154.1825 C.ar    1  UNL1        0.0023
     20 C         138.9464  147.8515  155.4743 C.ar    1  UNL1        0.0298
     21 C         139.4197  147.2801  156.7779 C.ar    1  UNL1        0.1445
     22 F         138.8484  147.7851  158.0697 F       1  UNL1       -0.2040
     23 N         141.9131  140.1048  167.1356 N.pl3   1  UNL1       -0.2871
     24 H         141.1117  140.0732  167.7066 H       1  UNL1        0.1512
     25 C         142.9475  139.0230  167.2345 C.3     1  UNL1        0.0925
     26 C         143.3889  138.2924  166.0011 C.3     1  UNL1        0.0386
     27 C         144.6566  138.6920  165.3060 C.3     1  UNL1        0.0738
     28 N         144.5708  139.9086  163.4750 N.3     1  UNL1       -0.2726
     29 C         144.0926  139.5654  162.8041 C.3     1  UNL1        0.0896
     30 C         143.9311  139.8352  162.0612 C.3     1  UNL1        0.0896
     31 N         144.1823  140.8188  161.3389 N.3     1  UNL1       -0.2714
     32 C         144.4810  140.7738  162.1048 C.3     1  UNL1        0.0735
     33 C         145.0094  140.7736  163.3540 C.3     1  UNL1        0.0333
     34 C         145.3510  140.8181  164.1019 C.3     1  UNL1        0.0603
     35 C         145.6121  141.9701  163.1774 C.3     1  UNL1        0.0333
     36 C         145.0278  141.9704  161.7959 C.3     1  UNL1        0.0735
@<TRIPOS>BOND
     1    12    13    2
     2    13    14   am
     3    14     6    1
     4     6     7   ar
     5     7     8   ar
     6     8     9   ar
     7     9     1    1
     8     1     2   ar
     9     2     3   ar
    10     3     4   ar
    11     4    23    1
    12    23    25    1
    13    25    26    1
    14    26    27    1
    15    27    28    1
    16    28    29    1
    17    29    30    1
    18    30    31    1
    19    31    32    1
    20    32    33    1
    21    33    34    1
    22    34    35    1
    23    35    36    1
    24     4     5   ar
    25     9    10   ar
    26    10    11   ar
    27    13    16    1
    28    16    17   ar
    29    17    18   ar
    30    18    19   ar
    31    19    20   ar
    32    20    21   ar
    33    21    22    1
    34    11     6   ar
    35    21    16   ar
    36     5     1   ar
    37    34    28    1
    38    36    31    1
    39    14    15    1
    40    23    24    1
@<TRIPOS>MOLECULE
*****
 36 40 0 0 0
SMALL
GASTEIGER

@<TRIPOS>ATOM
      1 C         140.0476  142.9914  160.4698 C.ar    1  UNL1        0.2512
      2 N         139.7307  144.3017  159.8122 N.ar    1  UNL1       -0.1058
      3 N         139.6169  145.3434  160.8856 N.ar    1  UNL1       -0.0923
      4 C         139.8636  144.6768  162.2064 C.ar    1  UNL1        0.3086
      5 O         140.1297  143.2231  161.9495 O.2     1  UNL1       -0.4048
      6 C         140.6467  139.0557  158.3717 C.ar    1  UNL1        0.0505
      7 C         141.1955  139.2606  159.7526 C.ar    1  UNL1        0.0148
      8 C         140.9958  140.5725  160.4520 C.ar    1  UNL1        0.0060
      9 C         140.2473  141.6794  159.7705 C.ar    1  UNL1        0.0553
     10 C         139.6985  141.4745  158.3896 C.ar    1  UNL1        0.0060
     11 C         139.8982  140.1626  157.6902 C.ar    1  UNL1        0.0148
     12 O         143.3409  138.3425  157.2618 O.2     1  UNL1       -0.2697
     13 C         142.1935  137.3872  157.1174 C.2     1  UNL1        0.2517
     14 N         140.8464  137.7438  157.6724 N.am    1  UNL1       -0.2803
     15 H         140.0933  137.1168  157.5776 H       1  UNL1        0.1552
     16 C         142.3933  136.0754  156.4180 C.ar    1  UNL1        0.0811
     17 C         143.3610  135.0709  156.9699 C.ar    1  UNL1        0.0068
     18 C         143.5608  133.7591  156.2705 C.ar    1  UNL1        0.0003
     19 C         142.7928  133.4516  155.0192 C.ar    1  UNL1        0.0023
     20 C         141.8250  134.4561  154.4673 C.ar    1  UNL1        0.0298
     21 C         141.6253  135.7680  155.1668 C.ar    1  UNL1        0.1445
     22 F         140.6575  136.7724  154.6149 F       1  UNL1       -0.2040
     23 N         139.8470  145.3463  163.5487 N.pl3   1  UNL1       -0.2871
     24 H         140.4052  146.1412  163.7093 H       1  UNL1        0.1512
     25 C         138.9798  144.8047  164.6462 C.3     1  UNL1        0.0925
     26 C         138.9527  143.3306  164.9224 C.3     1  UNL1        0.0386
     27 C         137.7668  142.5113  164.5072 C.3     1  UNL1        0.0738
     28 N         138.0637  140.5623  163.5308 N.3     1  UNL1       -0.2726
     29 C         138.4474  139.9321  164.0330 C.3     1  UNL1        0.0896
     30 C         138.6458  139.1651  163.8808 C.3     1  UNL1        0.0896
     31 N         138.5874  138.3427  162.9468 N.3     1  UNL1       -0.2714
     32 C         138.3016  139.1086  162.8495 C.3     1  UNL1        0.0735
     33 C         137.8100  140.3501  162.6112 C.3     1  UNL1        0.0333
     34 C         137.5001  141.0885  162.4198 C.3     1  UNL1        0.0603
     35 C         137.4627  140.0473  161.3408 C.3     1  UNL1        0.0333
     36 C         138.0064  138.6743  161.6043 C.3     1  UNL1        0.0735
@<TRIPOS>BOND
     1    12    13    2
     2    13    14   am
     3    14     6    1
     4     6     7   ar
     5     7     8   ar
     6     8     9   ar
     7     9     1    1
     8     1     2   ar
     9     2     3   ar
    10     3     4   ar
    11     4    23    1
    12    23    25    1
    13    25    26    1
    14    26    27    1
    15    27    28    1
    16    28    29    1
    17    29    30    1
    18    30    31    1
    19    31    32    1
    20    32    33    1
    21    33    34    1
    22    34    35    1
    23    35    36    1
    24     4     5   ar
    25     9    10   ar
    26    10    11   ar
    27    13    16    1
    28    16    17   ar
    29    17    18   ar
    30    18    19   ar
    31    19    20   ar
    32    20    21   ar
    33    21    22    1
    34    11     6   ar
    35    21    16   ar
    36     5     1   ar
    37    34    28    1
    38    36    31    1
    39    14    15    1
    40    23    24    1
@<TRIPOS>MOLECULE
*****
 36 40 0 0 0
SMALL
GASTEIGER

@<TRIPOS>ATOM
      1 C         142.9756  138.2760  158.2076 C.ar    1  UNL1        0.2512
      2 N         143.8196  139.3060  157.5171 N.ar    1  UNL1       -0.1058
      3 N         144.0766  138.8319  156.1174 N.ar    1  UNL1       -0.0923
      4 C         143.3916  137.5090  155.9428 C.ar    1  UNL1        0.3086
      5 O         142.7111  137.1654  157.2347 O.2     1  UNL1       -0.4048
      6 C         141.4967  138.4816  162.4527 C.ar    1  UNL1        0.0505
      7 C         142.9086  138.0610  162.1699 C.ar    1  UNL1        0.0148
      8 C         143.4015  137.9924  160.7548 C.ar    1  UNL1        0.0060
      9 C         142.4827  138.3445  159.6226 C.ar    1  UNL1        0.0553
     10 C         141.0709  138.7651  159.9055 C.ar    1  UNL1        0.0060
     11 C         140.5779  138.8337  161.3205 C.ar    1  UNL1        0.0148
     12 O         142.1651  140.8557  164.1605 O.2     1  UNL1       -0.2697
     13 C         141.3380  139.7372  164.7217 C.2     1  UNL1        0.2517
     14 N         141.0038  138.5502  163.8678 N.am    1  UNL1       -0.2803
     15 H         140.4609  137.8161  164.2361 H       1  UNL1        0.1552
     16 C         140.8451  139.8058  166.1367 C.ar    1  UNL1        0.0811
     17 C         139.3768  139.7024  166.4254 C.ar    1  UNL1        0.0068
     18 C         138.8840  139.7710  167.8405 C.ar    1  UNL1        0.0003
     19 C         139.8595  139.9431  168.9669 C.ar    1  UNL1        0.0023
     20 C         141.3278  140.0464  168.6782 C.ar    1  UNL1        0.0298
     21 C         141.8206  139.9778  167.2631 C.ar    1  UNL1        0.1445
     22 F         143.2889  140.0812  166.9744 F       1  UNL1       -0.2040
     23 N         143.3877  136.6759  154.6954 N.pl3   1  UNL1       -0.2871
     24 H         144.2059  136.5970  154.1536 H       1  UNL1        0.1512
     25 C         142.1372  135.9630  154.2736 C.3     1  UNL1        0.0925
     26 C         142.2269  134.6242  153.6033 C.3     1  UNL1        0.0386
     27 C         142.1558  133.3692  154.4219 C.3     1  UNL1        0.0738
     28 N         143.4566  133.1272  156.1795 N.3     1  UNL1       -0.2726
     29 C         143.3256  133.7112  156.8417 C.3     1  UNL1        0.0896
     30 C         143.6809  133.8038  157.5599 C.3     1  UNL1        0.0896
     31 N         144.5819  133.2790  158.2418 N.3     1  UNL1       -0.2714
     32 C         144.3952  132.9846  157.4959 C.3     1  UNL1        0.0735
     33 C         144.1468  132.4423  156.2778 C.3     1  UNL1        0.0333
     34 C         144.0325  132.0795  155.5476 C.3     1  UNL1        0.0603
     35 C         145.1034  131.4988  156.4227 C.3     1  UNL1        0.0333
     36 C         145.3781  132.0986  157.7699 C.3     1  UNL1        0.0735
@<TRIPOS>BOND
     1    12    13    2
     2    13    14   am
     3    14     6    1
     4     6     7   ar
     5     7     8   ar
     6     8     9   ar
     7     9     1    1
     8     1     2   ar
     9     2     3   ar
    10     3     4   ar
    11     4    23    1
    12    23    25    1
    13    25    26    1
    14    26    27    1
    15    27    28    1
    16    28    29    1
    17    29    30    1
    18    30    31    1
    19    31    32    1
    20    32    33    1
    21    33    34    1
    22    34    35    1
    23    35    36    1
    24     4     5   ar
    25     9    10   ar
    26    10    11   ar
    27    13    16    1
    28    16    17   ar
    29    17    18   ar
    30    18    19   ar
    31    19    20   ar
    32    20    21   ar
    33    21    22    1
    34    11     6   ar
    35    21    16   ar
    36     5     1   ar
    37    34    28    1
    38    36    31    1
    39    14    15    1
    40    23    24    1
@<TRIPOS>MOLECULE
*****
 36 40 0 0 0
SMALL
GASTEIGER

@<TRIPOS>ATOM
      1 C         142.2731  140.6915  164.2549 C.ar    1  UNL1        0.2512
      2 N         143.0178  141.9775  164.4588 N.ar    1  UNL1       -0.1058
      3 N         143.1653  142.1986  165.9351 N.ar    1  UNL1       -0.0923
      4 C         142.5118  141.0493  166.6435 C.ar    1  UNL1        0.3086
      5 O         141.9604  140.1178  165.6050 O.2     1  UNL1       -0.4048
      6 C         141.1707  138.8736  160.2887 C.ar    1  UNL1        0.0505
      7 C         141.7727  138.0186  161.3642 C.ar    1  UNL1        0.0148
      8 C         142.1402  138.6246  162.6863 C.ar    1  UNL1        0.0060
      9 C         141.9057  140.0855  162.9328 C.ar    1  UNL1        0.0553
     10 C         141.3037  140.9404  161.8573 C.ar    1  UNL1        0.0060
     11 C         140.9362  140.3345  160.5353 C.ar    1  UNL1        0.0148
     12 O         143.2949  138.3518  158.2356 O.2     1  UNL1       -0.2697
     13 C         141.8653  138.0067  157.9402 C.2     1  UNL1        0.2517
     14 N         140.8032  138.2676  158.9666 N.am    1  UNL1       -0.2803
     15 H         139.8650  138.0411  158.7727 H       1  UNL1        0.1552
     16 C         141.4979  137.4008  156.6181 C.ar    1  UNL1        0.0811
     17 C         140.6532  138.1725  155.6481 C.ar    1  UNL1        0.0068
     18 C         140.2859  137.5664  154.3260 C.ar    1  UNL1        0.0003
     19 C         140.7633  136.1887  153.9740 C.ar    1  UNL1        0.0023
     20 C         141.6080  135.4170  154.9440 C.ar    1  UNL1        0.0298
     21 C         141.9753  136.0230  156.2661 C.ar    1  UNL1        0.1445
     22 F         142.8200  135.2513  157.2361 F       1  UNL1       -0.2040
     23 N         142.4250  140.8639  168.1295 N.pl3   1  UNL1       -0.2871
     24 H         143.1707  141.1491  168.7056 H       1  UNL1        0.1512
     25 C         141.2020  140.2440  168.7377 C.3     1  UNL1        0.0925
     26 C         139.8407  140.6171  168.2304 C.3     1  UNL1        0.0386
     27 C         138.9592  139.5737  167.6106 C.3     1  UNL1        0.0738
     28 N         138.6020  139.5835  165.4398 N.3     1  UNL1       -0.2726
     29 C         138.3312  140.3612  165.0954 C.3     1  UNL1        0.0896
     30 C         138.1466  140.5847  164.3427 C.3     1  UNL1        0.0896
     31 N         138.0950  140.0946  163.1984 N.3     1  UNL1       -0.2714
     32 C         138.3266  139.6352  163.8412 C.3     1  UNL1        0.0735
     33 C         138.7174  138.8145  164.8479 C.3     1  UNL1        0.0333
     34 C         138.9593  138.2794  165.4249 C.3     1  UNL1        0.0603
     35 C         138.8743  137.7568  164.0215 C.3     1  UNL1        0.0333
     36 C         138.4421  138.6644  162.9082 C.3     1  UNL1        0.0735
@<TRIPOS>BOND
     1    12    13    2
     2    13    14   am
     3    14     6    1
     4     6     7   ar
     5     7     8   ar
     6     8     9   ar
     7     9     1    1
     8     1     2   ar
     9     2     3   ar
    10     3     4   ar
    11     4    23    1
    12    23    25    1
    13    25    26    1
    14    26    27    1
    15    27    28    1
    16    28    29    1
    17    29    30    1
    18    30    31    1
    19    31    32    1
    20    32    33    1
    21    33    34    1
    22    34    35    1
    23    35    36    1
    24     4     5   ar
    25     9    10   ar
    26    10    11   ar
    27    13    16    1
    28    16    17   ar
    29    17    18   ar
    30    18    19   ar
    31    19    20   ar
    32    20    21   ar
    33    21    22    1
    34    11     6   ar
    35    21    16   ar
    36     5     1   ar
    37    34    28    1
    38    36    31    1
    39    14    15    1
    40    23    24    1
@<TRIPOS>MOLECULE
*****
 36 40 0 0 0
SMALL
GASTEIGER

@<TRIPOS>ATOM
      1 C         141.3972  140.1509  162.8887 C.ar    1  UNL1        0.2512
      2 N         140.4839  139.0501  163.3400 N.ar    1  UNL1       -0.1058
      3 N         139.9285  139.4291  164.6809 N.ar    1  UNL1       -0.0923
      4 C         140.4986  140.7641  165.0582 C.ar    1  UNL1        0.3086
      5 O         141.4064  141.2103  163.9505 O.2     1  UNL1       -0.4048
      6 C         143.7050  140.2569  159.0269 C.ar    1  UNL1        0.0505
      7 C         142.5783  141.2208  159.2540 C.ar    1  UNL1        0.0148
      8 C         141.8090  141.1855  160.5413 C.ar    1  UNL1        0.0060
      9 C         142.1665  140.1863  161.6014 C.ar    1  UNL1        0.0553
     10 C         143.2931  139.2224  161.3742 C.ar    1  UNL1        0.0060
     11 C         144.0624  139.2577  160.0870 C.ar    1  UNL1        0.0148
     12 O         145.2472  142.7156  158.2681 O.2     1  UNL1       -0.2697
     13 C         145.2453  141.5216  157.3603 C.2     1  UNL1        0.2517
     14 N         144.4742  140.2922  157.7396 N.am    1  UNL1       -0.2803
     15 H         144.4729  139.5085  157.1437 H       1  UNL1        0.1552
     16 C         146.0145  141.5570  156.0730 C.ar    1  UNL1        0.0811
     17 C         145.4064  140.9996  154.8202 C.ar    1  UNL1        0.0068
     18 C         146.1757  141.0351  153.5330 C.ar    1  UNL1        0.0003
     19 C         147.5532  141.6279  153.4985 C.ar    1  UNL1        0.0023
     20 C         148.1613  142.1853  154.7513 C.ar    1  UNL1        0.0298
     21 C         147.3920  142.1498  156.0386 C.ar    1  UNL1        0.1445
     22 F         148.0001  142.7071  157.2914 F       1  UNL1       -0.2040
     23 N         140.2114  141.5204  166.3215 N.pl3   1  UNL1       -0.2871
     24 H         139.3476  141.4042  166.7792 H       1  UNL1        0.1512
     25 C         141.2404  142.4536  166.8872 C.3     1  UNL1        0.0925
     26 C         142.6784  142.0324  166.9551 C.3     1  UNL1        0.0386
     27 C         143.7459  142.9122  166.3751 C.3     1  UNL1        0.0738
     28 N         144.5122  142.5231  164.3500 N.3     1  UNL1       -0.2726
     29 C         145.0393  141.8076  164.2662 C.3     1  UNL1        0.0896
     30 C         145.4200  141.4873  163.6313 C.3     1  UNL1        0.0896
     31 N         145.5651  141.6993  162.4121 N.3     1  UNL1       -0.2714
     32 C         145.0998  142.1990  162.8722 C.3     1  UNL1        0.0735
     33 C         144.3180  143.0669  163.5615 C.3     1  UNL1        0.0333
     34 C         143.8360  143.6190  163.9369 C.3     1  UNL1        0.0603
     35 C         144.0551  143.8128  162.4657 C.3     1  UNL1        0.0333
     36 C         144.9197  142.8530  161.7034 C.3     1  UNL1        0.0735
@<TRIPOS>BOND
     1    12    13    2
     2    13    14   am
     3    14     6    1
     4     6     7   ar
     5     7     8   ar
     6     8     9   ar
     7     9     1    1
     8     1     2   ar
     9     2     3   ar
    10     3     4   ar
    11     4    23    1
    12    23    25    1
    13    25    26    1
    14    26    27    1
    15    27    28    1
    16    28    29    1
    17    29    30    1
    18    30    31    1
    19    31    32    1
    20    32    33    1
    21    33    34    1
    22    34    35    1
    23    35    36    1
    24     4     5   ar
    25     9    10   ar
    26    10    11   ar
    27    13    16    1
    28    16    17   ar
    29    17    18   ar
    30    18    19   ar
    31    19    20   ar
    32    20    21   ar
    33    21    22    1
    34    11     6   ar
    35    21    16   ar
    36     5     1   ar
    37    34    28    1
    38    36    31    1
    39    14    15    1
    40    23    24    1
