@<TRIPOS>MOLECULE
*****
 28 31 0 0 0
SMALL
GASTEIGER

@<TRIPOS>ATOM
      1 N         141.7917  141.3940  165.8906 N.am    1  UNL1       -0.2413
      2 C         142.2760  140.1901  165.1383 C.3     1  UNL1        0.1212
      3 C         141.9632  140.3945  163.6856 C.3     1  UNL1        0.1169
      4 N         141.2856  141.7248  163.5401 N.am    1  UNL1       -0.2606
      5 C         141.1796  142.3426  164.9028 C.2     1  UNL1        0.3111
      6 O         140.5688  143.6749  165.2219 O.2     1  UNL1       -0.2520
      7 C         140.8630  141.4664  169.7484 C.ar    1  UNL1        0.1400
      8 C         142.1178  142.0459  170.3312 C.ar    1  UNL1        0.0370
      9 C         143.2639  142.4080  169.4338 C.ar    1  UNL1        0.0044
     10 C         143.1553  142.1908  167.9537 C.ar    1  UNL1        0.0152
     11 C         141.9004  141.6113  167.3709 C.ar    1  UNL1        0.0584
     12 C         140.7543  141.2492  168.2682 C.ar    1  UNL1        0.0518
     13 C         138.5701  140.2995  170.1099 C.3     1  UNL1        0.2525
     14 O         139.7169  141.1042  170.6458 O.3     1  UNL1       -0.4714
     15 C         140.7994  142.3310  162.2571 C.3     1  UNL1        0.1123
     16 C         139.3946  142.0809  161.7944 C.3     1  UNL1        0.0939
     17 N         138.2417  142.3582  162.7130 N.3     1  UNL1       -0.2701
     18 C         137.8143  143.7721  162.9743 C.3     1  UNL1        0.0897
     19 C         137.5162  141.2216  163.3702 C.3     1  UNL1        0.0721
     20 C         138.1459  139.8613  163.4246 C.3     1  UNL1        0.0147
     21 C         138.4224  138.9701  162.2502 C.3     1  UNL1        0.0013
     22 C         139.0570  137.7114  162.7627 C.3     1  UNL1        0.0000
     23 C         139.1728  137.8246  164.2540 C.3     1  UNL1        0.0000
     24 C         138.8964  138.7158  165.4285 C.3     1  UNL1        0.0000
     25 C         138.2617  139.9746  164.9159 C.3     1  UNL1        0.0013
     26 C         138.6097  139.1533  164.6631 C.3     1  UNL1        0.0013
     27 C         138.8331  139.0287  166.1411 C.3     1  UNL1        0.0000
     28 C         138.2372  140.2105  165.6599 C.3     1  UNL1        0.0000
@<TRIPOS>BOND
     1    13    14    1
     2    14     7    1
     3     7     8   ar
     4     8     9   ar
     5     9    10   ar
     6    10    11   ar
     7    11     1    1
     8     1     2    1
     9     2     3    1
    10     3     4    1
    11     4    15    1
    12    15    16    1
    13    16    17    1
    14    17    18    1
    15    17    19    1
    16    20    19    1
    17    20    21    1
    18    21    22    1
    19    23    22    1
    20    23    24    1
    21    24    25    1
    22    23    26    1
    23    26    27    1
    24    26    28    1
    25     4     5   am
    26     5     6    2
    27    11    12   ar
    28    12     7   ar
    29     5     1   am
    30    25    20    1
    31    26    20    1
@<TRIPOS>MOLECULE
*****
 28 31 0 0 0
SMALL
GASTEIGER

@<TRIPOS>ATOM
      1 N         141.7887  141.9458  165.1473 N.am    1  UNL1       -0.2413
      2 C         141.0331  140.9035  164.3775 C.3     1  UNL1        0.1212
      3 C         141.2040  141.1922  162.9156 C.3     1  UNL1        0.1169
      4 N         142.0652  142.4130  162.7818 N.am    1  UNL1       -0.2606
      5 C         142.4266  142.8787  164.1611 C.2     1  UNL1        0.3111
      6 O         143.2766  144.0685  164.4954 O.2     1  UNL1       -0.2520
      7 C         140.7627  141.9569  168.9811 C.ar    1  UNL1        0.1400
      8 C         142.0890  142.2249  169.6286 C.ar    1  UNL1        0.0370
      9 C         143.3151  142.3999  168.7824 C.ar    1  UNL1        0.0044
     10 C         143.2150  142.3068  167.2887 C.ar    1  UNL1        0.0152
     11 C         141.8888  142.0388  166.6411 C.ar    1  UNL1        0.0584
     12 C         140.6627  141.8639  167.4873 C.ar    1  UNL1        0.0518
     13 C         138.9259  140.4217  169.9905 C.3     1  UNL1        0.2525
     14 O         139.5367  141.7819  169.8273 O.3     1  UNL1       -0.4714
     15 C         142.4905  143.0553  161.4947 C.3     1  UNL1        0.1123
     16 C         141.9211  144.3845  161.0958 C.3     1  UNL1        0.0939
     17 N         140.4681  144.5027  160.7426 N.3     1  UNL1       -0.2701
     18 C         140.0060  144.1830  159.3518 C.3     1  UNL1        0.0897
     19 C         139.4773  144.9404  161.7802 C.3     1  UNL1        0.0721
     20 C         138.7335  143.9169  162.5859 C.3     1  UNL1        0.0147
     21 C         137.9438  142.7661  162.0364 C.3     1  UNL1        0.0013
     22 C         137.3710  142.0025  163.1936 C.3     1  UNL1        0.0000
     23 C         137.8067  142.6815  164.4582 C.3     1  UNL1        0.0000
     24 C         138.5963  143.8323  165.0077 C.3     1  UNL1        0.0000
     25 C         139.1692  144.5959  163.8505 C.3     1  UNL1        0.0013
     26 C         138.6487  143.8647  164.0826 C.3     1  UNL1        0.0013
     27 C         138.9486  144.3556  165.4679 C.3     1  UNL1        0.0000
     28 C         139.4864  145.0725  164.3815 C.3     1  UNL1        0.0000
@<TRIPOS>BOND
     1    13    14    1
     2    14     7    1
     3     7     8   ar
     4     8     9   ar
     5     9    10   ar
     6    10    11   ar
     7    11     1    1
     8     1     2    1
     9     2     3    1
    10     3     4    1
    11     4    15    1
    12    15    16    1
    13    16    17    1
    14    17    18    1
    15    17    19    1
    16    20    19    1
    17    20    21    1
    18    21    22    1
    19    23    22    1
    20    23    24    1
    21    24    25    1
    22    23    26    1
    23    26    27    1
    24    26    28    1
    25     4     5   am
    26     5     6    2
    27    11    12   ar
    28    12     7   ar
    29     5     1   am
    30    25    20    1
    31    26    20    1
@<TRIPOS>MOLECULE
*****
 28 31 0 0 0
SMALL
GASTEIGER

@<TRIPOS>ATOM
      1 N         140.7878  141.3749  164.6777 N.am    1  UNL1       -0.2413
      2 C         139.9427  141.0656  163.4777 C.3     1  UNL1        0.1212
      3 C         140.7216  141.4429  162.2526 C.3     1  UNL1        0.1169
      4 N         142.0480  141.9853  162.6954 N.am    1  UNL1       -0.2606
      5 C         142.0890  141.9433  164.1942 C.2     1  UNL1        0.3111
      6 O         143.2306  142.3911  165.0579 O.2     1  UNL1       -0.2520
      7 C         138.9915  139.8912  167.8905 C.ar    1  UNL1        0.1400
      8 C         139.6239  140.7135  168.9740 C.ar    1  UNL1        0.0370
      9 C         140.6442  141.7563  168.6254 C.ar    1  UNL1        0.0044
     10 C         141.0322  141.9768  167.1933 C.ar    1  UNL1        0.0152
     11 C         140.3998  141.1544  166.1099 C.ar    1  UNL1        0.0584
     12 C         139.3795  140.1117  166.4585 C.ar    1  UNL1        0.0518
     13 C         137.3485  138.0171  167.1570 C.3     1  UNL1        0.2525
     14 O         137.9712  138.8484  168.2392 O.3     1  UNL1       -0.4714
     15 C         143.1416  142.4826  161.7972 C.3     1  UNL1        0.1123
     16 C         144.3226  141.6074  161.4979 C.3     1  UNL1        0.0939
     17 N         144.1459  140.1222  161.3841 N.3     1  UNL1       -0.2701
     18 C         143.8090  139.5065  160.0584 C.3     1  UNL1        0.0897
     19 C         144.3062  139.2528  162.5959 C.3     1  UNL1        0.0721
     20 C         143.1114  138.5690  163.1916 C.3     1  UNL1        0.0147
     21 C         141.9811  137.9448  162.4282 C.3     1  UNL1        0.0013
     22 C         141.0084  137.3793  163.4202 C.3     1  UNL1        0.0000
     23 C         141.5375  137.6540  164.7966 C.3     1  UNL1        0.0000
     24 C         142.6678  138.2782  165.5600 C.3     1  UNL1        0.0000
     25 C         143.6406  138.8437  164.5681 C.3     1  UNL1        0.0013
     26 C         142.8373  138.3893  164.6554 C.3     1  UNL1        0.0013
     27 C         143.1509  138.5410  166.1143 C.3     1  UNL1        0.0000
     28 C         144.0643  139.0720  165.1830 C.3     1  UNL1        0.0000
@<TRIPOS>BOND
     1    13    14    1
     2    14     7    1
     3     7     8   ar
     4     8     9   ar
     5     9    10   ar
     6    10    11   ar
     7    11     1    1
     8     1     2    1
     9     2     3    1
    10     3     4    1
    11     4    15    1
    12    15    16    1
    13    16    17    1
    14    17    18    1
    15    17    19    1
    16    20    19    1
    17    20    21    1
    18    21    22    1
    19    23    22    1
    20    23    24    1
    21    24    25    1
    22    23    26    1
    23    26    27    1
    24    26    28    1
    25     4     5   am
    26     5     6    2
    27    11    12   ar
    28    12     7   ar
    29     5     1   am
    30    25    20    1
    31    26    20    1
@<TRIPOS>MOLECULE
*****
 28 31 0 0 0
SMALL
GASTEIGER

@<TRIPOS>ATOM
      1 N         138.9342  140.9787  162.8998 N.am    1  UNL1       -0.2413
      2 C         137.8008  141.8450  162.4362 C.3     1  UNL1        0.1212
      3 C         138.3620  142.8914  161.5197 C.3     1  UNL1        0.1169
      4 N         139.8423  142.6718  161.4169 N.am    1  UNL1       -0.2606
      5 C         140.1959  141.4897  162.2699 C.2     1  UNL1        0.3111
      6 O         141.5699  140.9189  162.4596 O.2     1  UNL1       -0.2520
      7 C         138.4979  138.8604  166.2274 C.ar    1  UNL1        0.1400
      8 C         138.6065  137.4639  165.6907 C.ar    1  UNL1        0.0370
      9 C         138.8244  137.2390  164.2237 C.ar    1  UNL1        0.0044
     10 C         138.9336  138.4106  163.2934 C.ar    1  UNL1        0.0152
     11 C         138.8250  139.8070  163.8301 C.ar    1  UNL1        0.0584
     12 C         138.6071  140.0319  165.2971 C.ar    1  UNL1        0.0518
     13 C         139.2439  139.9285  168.4751 C.3     1  UNL1        0.2525
     14 O         138.2800  139.0852  167.6943 O.3     1  UNL1       -0.4714
     15 C         140.8007  143.4906  160.6039 C.3     1  UNL1        0.1123
     16 C         142.2648  143.4751  160.9302 C.3     1  UNL1        0.0939
     17 N         142.7585  144.1148  162.1939 N.3     1  UNL1       -0.2701
     18 C         144.2255  144.1235  162.5066 C.3     1  UNL1        0.0897
     19 C         141.7851  144.7457  163.1450 C.3     1  UNL1        0.0721
     20 C         141.3405  143.9995  164.3679 C.3     1  UNL1        0.0147
     21 C         142.1674  143.0287  165.1576 C.3     1  UNL1        0.0013
     22 C         141.3287  142.5224  166.2935 C.3     1  UNL1        0.0000
     23 C         139.9835  143.1802  166.2058 C.3     1  UNL1        0.0000
     24 C         139.1566  144.1510  165.4160 C.3     1  UNL1        0.0000
     25 C         139.9952  144.6574  164.2800 C.3     1  UNL1        0.0013
     26 C         139.9908  144.0931  165.0156 C.3     1  UNL1        0.0013
     27 C         138.5888  144.6114  165.1415 C.3     1  UNL1        0.0000
     28 C         139.3762  145.0869  164.0750 C.3     1  UNL1        0.0000
@<TRIPOS>BOND
     1    13    14    1
     2    14     7    1
     3     7     8   ar
     4     8     9   ar
     5     9    10   ar
     6    10    11   ar
     7    11     1    1
     8     1     2    1
     9     2     3    1
    10     3     4    1
    11     4    15    1
    12    15    16    1
    13    16    17    1
    14    17    18    1
    15    17    19    1
    16    20    19    1
    17    20    21    1
    18    21    22    1
    19    23    22    1
    20    23    24    1
    21    24    25    1
    22    23    26    1
    23    26    27    1
    24    26    28    1
    25     4     5   am
    26     5     6    2
    27    11    12   ar
    28    12     7   ar
    29     5     1   am
    30    25    20    1
    31    26    20    1
@<TRIPOS>MOLECULE
*****
 28 31 0 0 0
SMALL
GASTEIGER

@<TRIPOS>ATOM
      1 N         140.8392  141.1058  164.8686 N.am    1  UNL1       -0.2413
      2 C         140.3963  140.1340  163.8153 C.3     1  UNL1        0.1212
      3 C         140.9774  140.5745  162.5045 C.3     1  UNL1        0.1169
      4 N         141.7794  141.8185  162.7477 N.am    1  UNL1       -0.2606
      5 C         141.6940  142.1469  164.2088 C.2     1  UNL1        0.3111
      6 O         142.3485  143.3118  164.8904 O.2     1  UNL1       -0.2520
      7 C         140.6899  142.0130  168.7293 C.ar    1  UNL1        0.1400
      8 C         139.7880  140.9289  169.2405 C.ar    1  UNL1        0.0370
      9 C         139.2365  139.9038  168.2945 C.ar    1  UNL1        0.0044
     10 C         139.5869  139.9627  166.8372 C.ar    1  UNL1        0.0152
     11 C         140.4888  141.0468  166.3260 C.ar    1  UNL1        0.0584
     12 C         141.0402  142.0719  167.2720 C.ar    1  UNL1        0.0518
     13 C         140.4224  144.2414  170.0381 C.3     1  UNL1        0.2525
     14 O         141.2413  143.0381  169.6754 O.3     1  UNL1       -0.4714
     15 C         142.5343  142.5974  161.7117 C.3     1  UNL1        0.1123
     16 C         142.0861  143.9793  161.3379 C.3     1  UNL1        0.0939
     17 N         140.6952  144.2030  160.8228 N.3     1  UNL1       -0.2701
     18 C         140.3588  143.8652  159.4005 C.3     1  UNL1        0.0897
     19 C         139.6408  144.7645  161.7299 C.3     1  UNL1        0.0721
     20 C         138.7962  143.8429  162.5589 C.3     1  UNL1        0.0147
     21 C         138.0034  142.6760  162.0492 C.3     1  UNL1        0.0013
     22 C         137.3134  142.0383  163.2184 C.3     1  UNL1        0.0000
     23 C         137.6797  142.8110  164.4508 C.3     1  UNL1        0.0000
     24 C         138.4725  143.9779  164.9605 C.3     1  UNL1        0.0000
     25 C         139.1625  144.6157  163.7912 C.3     1  UNL1        0.0013
     26 C         138.5961  143.9264  164.0431 C.3     1  UNL1        0.0013
     27 C         138.8102  144.5274  165.4007 C.3     1  UNL1        0.0000
     28 C         139.4581  145.1262  164.3029 C.3     1  UNL1        0.0000
@<TRIPOS>BOND
     1    13    14    1
     2    14     7    1
     3     7     8   ar
     4     8     9   ar
     5     9    10   ar
     6    10    11   ar
     7    11     1    1
     8     1     2    1
     9     2     3    1
    10     3     4    1
    11     4    15    1
    12    15    16    1
    13    16    17    1
    14    17    18    1
    15    17    19    1
    16    20    19    1
    17    20    21    1
    18    21    22    1
    19    23    22    1
    20    23    24    1
    21    24    25    1
    22    23    26    1
    23    26    27    1
    24    26    28    1
    25     4     5   am
    26     5     6    2
    27    11    12   ar
    28    12     7   ar
    29     5     1   am
    30    25    20    1
    31    26    20    1
@<TRIPOS>MOLECULE
*****
 28 31 0 0 0
SMALL
GASTEIGER

@<TRIPOS>ATOM
      1 N         140.6704  141.2536  165.9958 N.am    1  UNL1       -0.2413
      2 C         142.0290  141.2990  165.3615 C.3     1  UNL1        0.1212
      3 C         141.8782  140.9280  163.9160 C.3     1  UNL1        0.1169
      4 N         140.4266  140.6534  163.6569 N.am    1  UNL1       -0.2606
      5 C         139.6801  140.8546  164.9422 C.2     1  UNL1        0.3111
      6 O         138.2027  140.6863  165.1394 O.2     1  UNL1       -0.2520
      7 C         139.4508  140.7925  169.7441 C.ar    1  UNL1        0.1400
      8 C         139.7308  142.1561  170.3031 C.ar    1  UNL1        0.0370
      9 C         140.3241  143.2187  169.4263 C.ar    1  UNL1        0.0044
     10 C         140.6373  142.9180  167.9905 C.ar    1  UNL1        0.0152
     11 C         140.3572  141.5545  167.4316 C.ar    1  UNL1        0.0584
     12 C         139.7640  140.4918  168.3084 C.ar    1  UNL1        0.0518
     13 C         137.3769  139.4898  170.6112 C.3     1  UNL1        0.2525
     14 O         138.8575  139.7299  170.6209 O.3     1  UNL1       -0.4714
     15 C         139.8267  140.2485  162.3430 C.3     1  UNL1        0.1123
     16 C         140.1953  140.9874  161.0907 C.3     1  UNL1        0.0939
     17 N         139.3348  142.1160  160.6049 N.3     1  UNL1       -0.2701
     18 C         138.2547  141.8555  159.5971 C.3     1  UNL1        0.0897
     19 C         139.5546  143.5050  161.1268 C.3     1  UNL1        0.0721
     20 C         139.1689  143.8466  162.5355 C.3     1  UNL1        0.0147
     21 C         137.7938  143.7367  163.1245 C.3     1  UNL1        0.0013
     22 C         137.8657  144.1803  164.5556 C.3     1  UNL1        0.0000
     23 C         139.2853  144.5644  164.8511 C.3     1  UNL1        0.0000
     24 C         140.6604  144.6743  164.2621 C.3     1  UNL1        0.0000
     25 C         140.5885  144.2307  162.8309 C.3     1  UNL1        0.0013
     26 C         140.0907  144.3582  163.6026 C.3     1  UNL1        0.0013
     27 C         141.4218  144.7957  164.1382 C.3     1  UNL1        0.0000
     28 C         141.3543  144.3792  162.7945 C.3     1  UNL1        0.0000
@<TRIPOS>BOND
     1    13    14    1
     2    14     7    1
     3     7     8   ar
     4     8     9   ar
     5     9    10   ar
     6    10    11   ar
     7    11     1    1
     8     1     2    1
     9     2     3    1
    10     3     4    1
    11     4    15    1
    12    15    16    1
    13    16    17    1
    14    17    18    1
    15    17    19    1
    16    20    19    1
    17    20    21    1
    18    21    22    1
    19    23    22    1
    20    23    24    1
    21    24    25    1
    22    23    26    1
    23    26    27    1
    24    26    28    1
    25     4     5   am
    26     5     6    2
    27    11    12   ar
    28    12     7   ar
    29     5     1   am
    30    25    20    1
    31    26    20    1
@<TRIPOS>MOLECULE
*****
 28 31 0 0 0
SMALL
GASTEIGER

@<TRIPOS>ATOM
      1 N         141.8851  140.9198  165.0621 N.am    1  UNL1       -0.2413
      2 C         142.2462  139.8778  164.0454 C.3     1  UNL1        0.1212
      3 C         141.8739  140.4033  162.6907 C.3     1  UNL1        0.1169
      4 N         141.2827  141.7701  162.8702 N.am    1  UNL1       -0.2606
      5 C         141.2896  142.0894  164.3358 C.2     1  UNL1        0.3111
      6 O         140.7889  143.3557  164.9646 O.2     1  UNL1       -0.2520
      7 C         142.1105  141.9122  168.8981 C.ar    1  UNL1        0.1400
      8 C         142.4831  140.5944  169.5103 C.ar    1  UNL1        0.0370
      9 C         142.6563  139.3852  168.6398 C.ar    1  UNL1        0.0044
     10 C         142.4570  139.4936  167.1571 C.ar    1  UNL1        0.0152
     11 C         142.0844  140.8113  166.5449 C.ar    1  UNL1        0.0584
     12 C         141.9112  142.0206  167.4154 C.ar    1  UNL1        0.0518
     13 C         140.6112  143.8200  169.8266 C.3     1  UNL1        0.2525
     14 O         141.9373  143.1214  169.7686 O.3     1  UNL1       -0.4714
     15 C         140.7740  142.6613  161.7761 C.3     1  UNL1        0.1123
     16 C         139.3638  142.5164  161.2855 C.3     1  UNL1        0.0939
     17 N         138.2363  142.3983  162.2676 N.3     1  UNL1       -0.2701
     18 C         137.7173  143.6213  162.9642 C.3     1  UNL1        0.0897
     19 C         137.6277  141.0574  162.5532 C.3     1  UNL1        0.0721
     20 C         138.0904  140.2605  163.7368 C.3     1  UNL1        0.0147
     21 C         138.1219  140.7331  165.1600 C.3     1  UNL1        0.0013
     22 C         138.6537  139.6158  166.0077 C.3     1  UNL1        0.0000
     23 C         138.9509  138.4526  165.1085 C.3     1  UNL1        0.0000
     24 C         138.9194  137.9800  163.6852 C.3     1  UNL1        0.0000
     25 C         138.3876  139.0974  162.8374 C.3     1  UNL1        0.0013
     26 C         138.6027  138.8511  163.7049 C.3     1  UNL1        0.0013
     27 C         138.9757  137.5672  163.0247 C.3     1  UNL1        0.0000
     28 C         138.4764  138.6163  162.2287 C.3     1  UNL1        0.0000
@<TRIPOS>BOND
     1    13    14    1
     2    14     7    1
     3     7     8   ar
     4     8     9   ar
     5     9    10   ar
     6    10    11   ar
     7    11     1    1
     8     1     2    1
     9     2     3    1
    10     3     4    1
    11     4    15    1
    12    15    16    1
    13    16    17    1
    14    17    18    1
    15    17    19    1
    16    20    19    1
    17    20    21    1
    18    21    22    1
    19    23    22    1
    20    23    24    1
    21    24    25    1
    22    23    26    1
    23    26    27    1
    24    26    28    1
    25     4     5   am
    26     5     6    2
    27    11    12   ar
    28    12     7   ar
    29     5     1   am
    30    25    20    1
    31    26    20    1
@<TRIPOS>MOLECULE
*****
 28 31 0 0 0
SMALL
GASTEIGER

@<TRIPOS>ATOM
      1 N         140.9281  141.1238  164.8176 N.am    1  UNL1       -0.2413
      2 C         141.8245  141.3834  163.6432 C.3     1  UNL1        0.1212
      3 C         140.9578  141.6291  162.4439 C.3     1  UNL1        0.1169
      4 N         139.5257  141.5214  162.8771 N.am    1  UNL1       -0.2606
      5 C         139.5074  141.2091  164.3440 C.2     1  UNL1        0.3111
      6 O         138.2833  141.0161  165.1892 O.2     1  UNL1       -0.2520
      7 C         141.3495  141.4002  168.7541 C.ar    1  UNL1        0.1400
      8 C         142.2663  140.2438  169.0229 C.ar    1  UNL1        0.0370
      9 C         142.7370  139.3807  167.8900 C.ar    1  UNL1        0.0044
     10 C         142.2910  139.6740  166.4882 C.ar    1  UNL1        0.0152
     11 C         141.3742  140.8304  166.2194 C.ar    1  UNL1        0.0584
     12 C         140.9035  141.6935  167.3524 C.ar    1  UNL1        0.0518
     13 C         140.4260  143.6684  169.6215 C.3     1  UNL1        0.2525
     14 O         140.8788  142.2632  169.8871 O.3     1  UNL1       -0.4714
     15 C         138.3232  141.6955  161.9976 C.3     1  UNL1        0.1123
     16 C         137.6379  140.4938  161.4175 C.3     1  UNL1        0.0939
     17 N         138.4194  139.5035  160.6060 N.3     1  UNL1       -0.2701
     18 C         138.8184  139.8358  159.1987 C.3     1  UNL1        0.0897
     19 C         138.8019  138.1811  161.2017 C.3     1  UNL1        0.0721
     20 C         140.1207  138.0261  161.8993 C.3     1  UNL1        0.0147
     21 C         141.4739  138.1453  161.2632 C.3     1  UNL1        0.0013
     22 C         142.5074  137.9175  162.3262 C.3     1  UNL1        0.0000
     23 C         141.7929  137.6575  163.6193 C.3     1  UNL1        0.0000
     24 C         140.4397  137.5384  164.2553 C.3     1  UNL1        0.0000
     25 C         139.4061  137.7661  163.1923 C.3     1  UNL1        0.0013
     26 C         140.3178  137.7247  163.3554 C.3     1  UNL1        0.0013
     27 C         139.8431  137.4417  164.7499 C.3     1  UNL1        0.0000
     28 C         138.8728  137.6556  163.7518 C.3     1  UNL1        0.0000
@<TRIPOS>BOND
     1    13    14    1
     2    14     7    1
     3     7     8   ar
     4     8     9   ar
     5     9    10   ar
     6    10    11   ar
     7    11     1    1
     8     1     2    1
     9     2     3    1
    10     3     4    1
    11     4    15    1
    12    15    16    1
    13    16    17    1
    14    17    18    1
    15    17    19    1
    16    20    19    1
    17    20    21    1
    18    21    22    1
    19    23    22    1
    20    23    24    1
    21    24    25    1
    22    23    26    1
    23    26    27    1
    24    26    28    1
    25     4     5   am
    26     5     6    2
    27    11    12   ar
    28    12     7   ar
    29     5     1   am
    30    25    20    1
    31    26    20    1
@<TRIPOS>MOLECULE
*****
 28 31 0 0 0
SMALL
GASTEIGER

@<TRIPOS>ATOM
      1 N         140.2188  141.0946  165.0961 N.am    1  UNL1       -0.2413
      2 C         141.1051  141.9799  164.2711 C.3     1  UNL1        0.1212
      3 C         140.8963  141.6293  162.8278 C.3     1  UNL1        0.1169
      4 N         139.8809  140.5273  162.7607 N.am    1  UNL1       -0.2606
      5 C         139.4622  140.1969  164.1626 C.2     1  UNL1        0.3111
      6 O         138.4624  139.1521  164.5611 O.2     1  UNL1       -0.2520
      7 C         140.6276  142.2244  168.8786 C.ar    1  UNL1        0.1400
      8 C         139.8879  141.1266  169.5838 C.ar    1  UNL1        0.0370
      9 C         139.2584  140.0181  168.7932 C.ar    1  UNL1        0.0044
     10 C         139.3687  140.0074  167.2974 C.ar    1  UNL1        0.0152
     11 C         140.1085  141.1053  166.5921 C.ar    1  UNL1        0.0584
     12 C         140.7379  142.2138  167.3827 C.ar    1  UNL1        0.0518
     13 C         142.5848  143.1199  170.3337 C.3     1  UNL1        0.2525
     14 O         141.2571  143.3329  169.6692 O.3     1  UNL1       -0.4714
     15 C         139.3733  139.8710  161.5111 C.3     1  UNL1        0.1123
     16 C         139.8118  138.4792  161.1635 C.3     1  UNL1        0.0939
     17 N         141.2705  138.1296  161.1669 N.3     1  UNL1       -0.2701
     18 C         142.0645  138.2124  159.8969 C.3     1  UNL1        0.0897
     19 C         141.9351  137.6970  162.4401 C.3     1  UNL1        0.0721
     20 C         142.9277  138.5990  163.1120 C.3     1  UNL1        0.0147
     21 C         143.9533  139.4497  162.4232 C.3     1  UNL1        0.0013
     22 C         144.7284  140.1850  163.4761 C.3     1  UNL1        0.0000
     23 C         144.1818  139.7887  164.8156 C.3     1  UNL1        0.0000
     24 C         143.1562  138.9379  165.5044 C.3     1  UNL1        0.0000
     25 C         142.3811  138.2026  164.4514 C.3     1  UNL1        0.0013
     26 C         143.0689  138.8084  164.5905 C.3     1  UNL1        0.0013
     27 C         142.7030  138.5747  166.0263 C.3     1  UNL1        0.0000
     28 C         141.9752  137.8844  165.0378 C.3     1  UNL1        0.0000
@<TRIPOS>BOND
     1    13    14    1
     2    14     7    1
     3     7     8   ar
     4     8     9   ar
     5     9    10   ar
     6    10    11   ar
     7    11     1    1
     8     1     2    1
     9     2     3    1
    10     3     4    1
    11     4    15    1
    12    15    16    1
    13    16    17    1
    14    17    18    1
    15    17    19    1
    16    20    19    1
    17    20    21    1
    18    21    22    1
    19    23    22    1
    20    23    24    1
    21    24    25    1
    22    23    26    1
    23    26    27    1
    24    26    28    1
    25     4     5   am
    26     5     6    2
    27    11    12   ar
    28    12     7   ar
    29     5     1   am
    30    25    20    1
    31    26    20    1
