@<TRIPOS>MOLECULE
*****
 33 36 0 0 0
SMALL
GASTEIGER

@<TRIPOS>ATOM
      1 C         142.0965  143.6266  160.7190 C.3     1  UNL1        0.1121
      2 C         141.8958  144.1911  159.3438 C.ar    1  UNL1       -0.0068
      3 C         142.6146  143.9574  158.0482 C.ar    1  UNL1       -0.0029
      4 C         142.1795  144.6806  156.8082 C.ar    1  UNL1       -0.0003
      5 C         141.0256  145.6374  156.8638 C.ar    1  UNL1       -0.0003
      6 C         140.3068  145.8710  158.1594 C.ar    1  UNL1       -0.0045
      7 C         140.7419  145.1479  159.3994 C.ar    1  UNL1       -0.0228
      8 C         140.2295  145.1747  160.8090 C.3     1  UNL1        0.0477
      9 C         141.0668  144.2345  161.6245 C.3     1  UNL1        0.0983
     10 C         144.3239  143.0671  161.9340 C.2     1  UNL1        0.2241
     11 O         144.4576  144.5020  162.3498 O.2     1  UNL1       -0.2750
     12 N         143.1434  142.6293  161.1185 N.am    1  UNL1       -0.3007
     13 H         143.0556  141.6875  160.8456 H       1  UNL1        0.1497
     14 C         145.3707  142.0698  162.3335 C.3     1  UNL1        0.1023
     15 C         145.5975  141.7608  163.7836 C.3     1  UNL1        0.0818
     16 C         143.6174  140.4935  164.8898 C.3     1  UNL1        0.0897
     17 N         144.4388  141.7393  164.7359 N.3     1  UNL1       -0.2699
     18 C         144.1013  142.9635  165.5344 C.3     1  UNL1        0.0897
     19 N         140.9029  143.9519  163.0885 N.am    1  UNL1       -0.2990
     20 C         140.5591  142.5671  163.5512 C.2     1  UNL1        0.2636
     21 O         140.3790  141.4649  162.5498 O.2     1  UNL1       -0.2685
     22 H         141.0211  144.6753  163.7458 H       1  UNL1        0.1498
     23 C         140.3953  142.2845  165.0152 C.2     1  UNL1        0.1341
     24 C         139.9331  140.9906  165.6171 C.2     1  UNL1        0.0250
     25 C         139.9171  141.1526  167.1082 C.2     1  UNL1        0.0179
     26 C         139.5491  140.2108  168.2162 C.2     1  UNL1        0.0329
     27 C         139.6333  140.6631  169.6438 C.2     1  UNL1        0.1637
     28 F         139.2654  139.7213  170.7519 F       1  UNL1       -0.2021
     29 C         140.0856  142.0571  169.9636 C.2     1  UNL1        0.1508
     30 F         140.1698  142.5093  171.3913 F       1  UNL1       -0.2061
     31 C         140.4535  142.9988  168.8556 C.3     1  UNL1        0.1045
     32 C         140.3693  142.5466  167.4279 C.2     1  UNL1        0.0660
     33 N         140.6648  143.2462  166.1344 N.2     1  UNL1       -0.2447
@<TRIPOS>BOND
     1    16    17    1
     2    17    18    1
     3    17    15    1
     4    15    14    1
     5    14    10    1
     6    10    11    2
     7    10    12   am
     8     1    12    1
     9     1     2    1
    10     2     3   ar
    11     3     4   ar
    12     4     5   ar
    13     5     6   ar
    14     6     7   ar
    15     7     8    1
    16     8     9    1
    17     9    19    1
    18    19    20   am
    19    20    21    2
    20    20    23    1
    21    23    24    2
    22    24    25    1
    23    25    26    2
    24    26    27    1
    25    27    28    1
    26    27    29    2
    27    29    30    1
    28    29    31    1
    29    31    32    1
    30    32    33    2
    31     9     1    1
    32    33    23    1
    33     7     2   ar
    34    32    25    1
    35    12    13    1
    36    19    22    1
@<TRIPOS>MOLECULE
*****
 33 36 0 0 0
SMALL
GASTEIGER

@<TRIPOS>ATOM
      1 C         138.9616  141.5521  160.5121 C.3     1  UNL1        0.1121
      2 C         138.8427  141.3439  159.0314 C.ar    1  UNL1       -0.0068
      3 C         138.5494  142.2902  157.9052 C.ar    1  UNL1       -0.0029
      4 C         138.4928  141.7828  156.4948 C.ar    1  UNL1       -0.0003
      5 C         138.7296  140.3291  156.2106 C.ar    1  UNL1       -0.0003
      6 C         139.0228  139.3828  157.3368 C.ar    1  UNL1       -0.0045
      7 C         139.0794  139.8902  158.7472 C.ar    1  UNL1       -0.0228
      8 C         139.3446  139.2000  160.0523 C.3     1  UNL1        0.0477
      9 C         139.2718  140.2271  161.1431 C.3     1  UNL1        0.0983
     10 C         137.8474  142.9600  162.3900 C.2     1  UNL1        0.2241
     11 O         137.0587  141.7595  162.8222 O.2     1  UNL1       -0.2750
     12 N         138.7989  142.8563  161.2350 N.am    1  UNL1       -0.3007
     13 H         139.3165  143.6442  160.9513 H       1  UNL1        0.1497
     14 C         137.6847  144.2643  163.1128 C.3     1  UNL1        0.1023
     15 C         138.8615  144.8946  163.7966 C.3     1  UNL1        0.0818
     16 C         141.4175  145.1724  163.4221 C.3     1  UNL1        0.0897
     17 N         140.0053  145.4252  162.9839 N.3     1  UNL1       -0.2699
     18 C         139.7369  146.2085  161.7332 C.3     1  UNL1        0.0897
     19 N         139.4738  139.9736  162.6077 N.am    1  UNL1       -0.2990
     20 C         140.5620  140.6911  163.3499 C.2     1  UNL1        0.2636
     21 O         141.4483  141.6621  162.6275 O.2     1  UNL1       -0.2685
     22 H         138.8921  139.3364  163.0818 H       1  UNL1        0.1498
     23 C         140.7640  140.4377  164.8145 C.2     1  UNL1        0.1341
     24 C         139.7332  140.6130  165.8900 C.2     1  UNL1        0.0250
     25 C         140.3644  140.2481  167.2009 C.2     1  UNL1        0.0179
     26 C         139.8288  140.2291  168.6019 C.2     1  UNL1        0.0329
     27 C         140.7142  139.8092  169.7376 C.2     1  UNL1        0.1637
     28 F         140.1786  139.7901  171.1386 F       1  UNL1       -0.2021
     29 C         142.1351  139.4084  169.4723 C.2     1  UNL1        0.1508
     30 F         143.0205  138.9886  170.6080 F       1  UNL1       -0.2061
     31 C         142.6706  139.4275  168.0713 C.3     1  UNL1        0.1045
     32 C         141.7853  139.8473  166.9356 C.2     1  UNL1        0.0660
     33 N         142.0323  139.9645  165.4607 N.2     1  UNL1       -0.2447
@<TRIPOS>BOND
     1    16    17    1
     2    17    18    1
     3    17    15    1
     4    15    14    1
     5    14    10    1
     6    10    11    2
     7    10    12   am
     8     1    12    1
     9     1     2    1
    10     2     3   ar
    11     3     4   ar
    12     4     5   ar
    13     5     6   ar
    14     6     7   ar
    15     7     8    1
    16     8     9    1
    17     9    19    1
    18    19    20   am
    19    20    21    2
    20    20    23    1
    21    23    24    2
    22    24    25    1
    23    25    26    2
    24    26    27    1
    25    27    28    1
    26    27    29    2
    27    29    30    1
    28    29    31    1
    29    31    32    1
    30    32    33    2
    31     9     1    1
    32    33    23    1
    33     7     2   ar
    34    32    25    1
    35    12    13    1
    36    19    22    1
@<TRIPOS>MOLECULE
*****
 33 36 0 0 0
SMALL
GASTEIGER

@<TRIPOS>ATOM
      1 C         140.8408  142.1888  166.2246 C.3     1  UNL1        0.1121
      2 C         141.2625  142.5178  167.6261 C.ar    1  UNL1       -0.0068
      3 C         140.5315  143.1542  168.7709 C.ar    1  UNL1       -0.0029
      4 C         141.2273  143.3595  170.0837 C.ar    1  UNL1       -0.0003
      5 C         142.6542  142.9284  170.2517 C.ar    1  UNL1       -0.0003
      6 C         143.3852  142.2920  169.1069 C.ar    1  UNL1       -0.0045
      7 C         142.6893  142.0867  167.7941 C.ar    1  UNL1       -0.0228
      8 C         143.1495  141.4912  166.4965 C.3     1  UNL1        0.0477
      9 C         142.0071  141.5543  165.5265 C.3     1  UNL1        0.0983
     10 C         139.2420  143.7104  164.8541 C.2     1  UNL1        0.2241
     11 O         140.3446  144.7124  164.6801 O.2     1  UNL1       -0.2750
     12 N         139.4901  142.4486  165.6264 N.am    1  UNL1       -0.3007
     13 H         138.7664  141.7910  165.7405 H       1  UNL1        0.1497
     14 C         137.8912  143.9703  164.2558 C.3     1  UNL1        0.1023
     15 C         137.6909  143.8469  162.7744 C.3     1  UNL1        0.0818
     16 C         138.2617  142.3789  160.7082 C.3     1  UNL1        0.0897
     17 N         137.7624  142.5003  162.1175 N.3     1  UNL1       -0.2699
     18 C         137.3348  141.2751  162.8699 C.3     1  UNL1        0.0897
     19 N         142.0274  141.0683  164.1076 N.am    1  UNL1       -0.2990
     20 C         141.0981  139.9726  163.6768 C.2     1  UNL1        0.2636
     21 O         140.1485  139.3627  164.6649 O.2     1  UNL1       -0.2685
     22 H         142.6506  141.4686  163.4590 H       1  UNL1        0.1498
     23 C         141.1184  139.4866  162.2578 C.2     1  UNL1        0.1341
     24 C         142.3360  139.0770  161.4834 C.2     1  UNL1        0.0250
     25 C         141.8948  138.6621  160.1111 C.2     1  UNL1        0.0179
     26 C         142.6575  138.1647  158.9192 C.2     1  UNL1        0.0329
     27 C         141.9299  137.8204  157.6535 C.2     1  UNL1        0.1637
     28 F         142.6926  137.3229  156.4615 F       1  UNL1       -0.2021
     29 C         140.4395  137.9735  157.5798 C.2     1  UNL1        0.1508
     30 F         139.7119  137.6292  156.3140 F       1  UNL1       -0.2061
     31 C         139.6768  138.4710  158.7717 C.3     1  UNL1        0.1045
     32 C         140.4044  138.8153  160.0374 C.2     1  UNL1        0.0660
     33 N         139.9245  139.3248  161.3641 N.2     1  UNL1       -0.2447
@<TRIPOS>BOND
     1    16    17    1
     2    17    18    1
     3    17    15    1
     4    15    14    1
     5    14    10    1
     6    10    11    2
     7    10    12   am
     8     1    12    1
     9     1     2    1
    10     2     3   ar
    11     3     4   ar
    12     4     5   ar
    13     5     6   ar
    14     6     7   ar
    15     7     8    1
    16     8     9    1
    17     9    19    1
    18    19    20   am
    19    20    21    2
    20    20    23    1
    21    23    24    2
    22    24    25    1
    23    25    26    2
    24    26    27    1
    25    27    28    1
    26    27    29    2
    27    29    30    1
    28    29    31    1
    29    31    32    1
    30    32    33    2
    31     9     1    1
    32    33    23    1
    33     7     2   ar
    34    32    25    1
    35    12    13    1
    36    19    22    1
@<TRIPOS>MOLECULE
*****
 33 36 0 0 0
SMALL
GASTEIGER

@<TRIPOS>ATOM
      1 C         142.1115  142.2289  165.8904 C.3     1  UNL1        0.1121
      2 C         142.0253  142.3370  167.3841 C.ar    1  UNL1       -0.0068
      3 C         142.9784  141.9486  168.4752 C.ar    1  UNL1       -0.0029
      4 C         142.6112  142.1833  169.9104 C.ar    1  UNL1       -0.0003
      5 C         141.2909  142.8064  170.2546 C.ar    1  UNL1       -0.0003
      6 C         140.3377  143.1948  169.1635 C.ar    1  UNL1       -0.0045
      7 C         140.7049  142.9601  167.7282 C.ar    1  UNL1       -0.0228
      8 C         139.9752  143.2370  166.4473 C.3     1  UNL1        0.0477
      9 C         140.8445  142.7851  165.3115 C.3     1  UNL1        0.0983
     10 C         144.4259  142.5394  164.7514 C.2     1  UNL1        0.2241
     11 O         144.4379  143.9802  165.1685 O.2     1  UNL1       -0.2750
     12 N         143.2627  141.6637  165.1124 N.am    1  UNL1       -0.3007
     13 H         143.2548  140.7180  164.8387 H       1  UNL1        0.1497
     14 C         145.5771  141.9742  163.9734 C.3     1  UNL1        0.1023
     15 C         145.3704  141.5022  162.5647 C.3     1  UNL1        0.0818
     16 C         143.0172  141.2765  161.4869 C.3     1  UNL1        0.0897
     17 N         144.1734  140.6657  162.2221 N.3     1  UNL1       -0.2699
     18 C         144.1325  139.2186  162.6145 C.3     1  UNL1        0.0897
     19 N         140.5061  142.8739  163.8528 N.am    1  UNL1       -0.2990
     20 C         140.9144  144.0801  163.0603 C.2     1  UNL1        0.2636
     21 O         141.6611  145.1977  163.7263 O.2     1  UNL1       -0.2685
     22 H         140.0161  142.1404  163.4157 H       1  UNL1        0.1498
     23 C         140.5761  144.1688  161.6016 C.2     1  UNL1        0.1341
     24 C         139.8259  143.1418  160.8064 C.2     1  UNL1        0.0250
     25 C         139.7147  143.6384  159.3954 C.2     1  UNL1        0.0179
     26 C         139.0810  143.0482  158.1707 C.2     1  UNL1        0.0329
     27 C         139.1287  143.7921  156.8690 C.2     1  UNL1        0.1637
     28 F         138.4949  143.2019  155.6442 F       1  UNL1       -0.2021
     29 C         139.8102  145.1261  156.7921 C.2     1  UNL1        0.1508
     30 F         139.8579  145.8700  155.4904 F       1  UNL1       -0.2061
     31 C         140.4439  145.7163  158.0168 C.3     1  UNL1        0.1045
     32 C         140.3962  144.9724  159.3185 C.2     1  UNL1        0.0660
     33 N         140.9286  145.3003  160.6820 N.2     1  UNL1       -0.2447
@<TRIPOS>BOND
     1    16    17    1
     2    17    18    1
     3    17    15    1
     4    15    14    1
     5    14    10    1
     6    10    11    2
     7    10    12   am
     8     1    12    1
     9     1     2    1
    10     2     3   ar
    11     3     4   ar
    12     4     5   ar
    13     5     6   ar
    14     6     7   ar
    15     7     8    1
    16     8     9    1
    17     9    19    1
    18    19    20   am
    19    20    21    2
    20    20    23    1
    21    23    24    2
    22    24    25    1
    23    25    26    2
    24    26    27    1
    25    27    28    1
    26    27    29    2
    27    29    30    1
    28    29    31    1
    29    31    32    1
    30    32    33    2
    31     9     1    1
    32    33    23    1
    33     7     2   ar
    34    32    25    1
    35    12    13    1
    36    19    22    1
@<TRIPOS>MOLECULE
*****
 33 36 0 0 0
SMALL
GASTEIGER

@<TRIPOS>ATOM
      1 C         140.1164  140.9162  165.2705 C.3     1  UNL1        0.1121
      2 C         139.9575  140.9414  166.7618 C.ar    1  UNL1       -0.0068
      3 C         139.4441  139.9208  167.7339 C.ar    1  UNL1       -0.0029
      4 C         139.4027  140.2357  169.1998 C.ar    1  UNL1       -0.0003
      5 C         139.8746  141.5711  169.6938 C.ar    1  UNL1       -0.0003
      6 C         140.3880  142.5917  168.7217 C.ar    1  UNL1       -0.0045
      7 C         140.4295  142.2768  167.2558 C.ar    1  UNL1       -0.0228
      8 C         140.8800  143.0769  166.0697 C.3     1  UNL1        0.0477
      9 C         140.6865  142.2360  164.8427 C.3     1  UNL1        0.0983
     10 C         138.5492  139.8512  163.4929 C.2     1  UNL1        0.2241
     11 O         137.6817  141.0745  163.5247 O.2     1  UNL1       -0.2750
     12 N         139.7666  139.7720  164.3658 N.am    1  UNL1       -0.3007
     13 H         140.3359  138.9691  164.3449 H       1  UNL1        0.1497
     14 C         138.1994  138.7070  162.5882 C.3     1  UNL1        0.1023
     15 C         139.1155  138.3359  161.4600 C.3     1  UNL1        0.0818
     16 C         141.5227  137.7050  162.2068 C.3     1  UNL1        0.0897
     17 N         140.5773  138.6618  161.5427 N.3     1  UNL1       -0.2699
     18 C         141.0938  139.9445  160.9615 C.3     1  UNL1        0.0897
     19 N         141.0069  142.6435  163.4351 N.am    1  UNL1       -0.2990
     20 C         140.2076  143.7222  162.7661 C.2     1  UNL1        0.2636
     21 O         139.0879  144.3935  163.5048 O.2     1  UNL1       -0.2685
     22 H         141.7418  142.2029  162.9502 H       1  UNL1        0.1498
     23 C         140.5280  144.1296  161.3585 C.2     1  UNL1        0.1341
     24 C         141.6595  143.6055  160.5248 C.2     1  UNL1        0.0250
     25 C         141.6039  144.2846  159.1885 C.2     1  UNL1        0.0179
     26 C         142.4643  144.1656  157.9656 C.2     1  UNL1        0.0329
     27 C         142.1588  144.9903  156.7505 C.2     1  UNL1        0.1637
     28 F         143.0192  144.8712  155.5275 F       1  UNL1       -0.2021
     29 C         140.9930  145.9341  156.7583 C.2     1  UNL1        0.1508
     30 F         140.6875  146.7588  155.5431 F       1  UNL1       -0.2061
     31 C         140.1326  146.0531  157.9812 C.3     1  UNL1        0.1045
     32 C         140.4381  145.2284  159.1963 C.2     1  UNL1        0.0660
     33 N         139.7730  145.1326  160.5375 N.2     1  UNL1       -0.2447
@<TRIPOS>BOND
     1    16    17    1
     2    17    18    1
     3    17    15    1
     4    15    14    1
     5    14    10    1
     6    10    11    2
     7    10    12   am
     8     1    12    1
     9     1     2    1
    10     2     3   ar
    11     3     4   ar
    12     4     5   ar
    13     5     6   ar
    14     6     7   ar
    15     7     8    1
    16     8     9    1
    17     9    19    1
    18    19    20   am
    19    20    21    2
    20    20    23    1
    21    23    24    2
    22    24    25    1
    23    25    26    2
    24    26    27    1
    25    27    28    1
    26    27    29    2
    27    29    30    1
    28    29    31    1
    29    31    32    1
    30    32    33    2
    31     9     1    1
    32    33    23    1
    33     7     2   ar
    34    32    25    1
    35    12    13    1
    36    19    22    1
@<TRIPOS>MOLECULE
*****
 33 36 0 0 0
SMALL
GASTEIGER

@<TRIPOS>ATOM
      1 C         142.0218  141.0190  166.1897 C.3     1  UNL1        0.1121
      2 C         141.6662  140.6342  167.5952 C.ar    1  UNL1       -0.0068
      3 C         142.5112  140.3052  168.7900 C.ar    1  UNL1       -0.0029
      4 C         141.8604  139.9488  170.0936 C.ar    1  UNL1       -0.0003
      5 C         140.3646  139.9212  170.2023 C.ar    1  UNL1       -0.0003
      6 C         139.5196  140.2501  169.0074 C.ar    1  UNL1       -0.0045
      7 C         140.1704  140.6066  167.7038 C.ar    1  UNL1       -0.0228
      8 C         139.6016  140.9745  166.3655 C.3     1  UNL1        0.0477
      9 C         140.7458  141.2293  165.4297 C.3     1  UNL1        0.0983
     10 C         143.8823  140.2627  164.5413 C.2     1  UNL1        0.2241
     11 O         142.9668  139.2094  163.9913 O.2     1  UNL1       -0.2750
     12 N         143.4098  141.1675  165.6406 N.am    1  UNL1       -0.3007
     13 H         144.0107  141.8588  166.0016 H       1  UNL1        0.1497
     14 C         145.2703  140.4112  163.9922 C.3     1  UNL1        0.1023
     15 C         145.6994  141.7115  163.3800 C.3     1  UNL1        0.0818
     16 C         144.2648  143.8753  163.4821 C.3     1  UNL1        0.0897
     17 N         144.6794  142.6240  162.7660 N.3     1  UNL1       -0.2699
     18 C         144.0741  142.2854  161.4360 C.3     1  UNL1        0.0897
     19 N         140.6337  141.6251  163.9872 N.am    1  UNL1       -0.2990
     20 C         140.6731  143.0741  163.6017 C.2     1  UNL1        0.2636
     21 O         140.8245  144.1276  164.6588 O.2     1  UNL1       -0.2685
     22 H         140.5343  140.9337  163.2934 H       1  UNL1        0.1498
     23 C         140.5610  143.4699  162.1592 C.2     1  UNL1        0.1341
     24 C         139.7314  142.7795  161.1175 C.2     1  UNL1        0.0250
     25 C         139.9165  143.5084  159.8196 C.2     1  UNL1        0.0179
     26 C         139.3474  143.2807  158.4506 C.2     1  UNL1        0.0329
     27 C         139.7223  144.1938  157.3212 C.2     1  UNL1        0.1637
     28 F         139.1533  143.9661  155.9520 F       1  UNL1       -0.2021
     29 C         140.6663  145.3346  157.5608 C.2     1  UNL1        0.1508
     30 F         141.0412  146.2478  156.4313 F       1  UNL1       -0.2061
     31 C         141.2354  145.5624  158.9298 C.3     1  UNL1        0.1045
     32 C         140.8604  144.6492  160.0592 C.2     1  UNL1        0.0660
     33 N         141.2588  144.6255  161.5052 N.2     1  UNL1       -0.2447
@<TRIPOS>BOND
     1    16    17    1
     2    17    18    1
     3    17    15    1
     4    15    14    1
     5    14    10    1
     6    10    11    2
     7    10    12   am
     8     1    12    1
     9     1     2    1
    10     2     3   ar
    11     3     4   ar
    12     4     5   ar
    13     5     6   ar
    14     6     7   ar
    15     7     8    1
    16     8     9    1
    17     9    19    1
    18    19    20   am
    19    20    21    2
    20    20    23    1
    21    23    24    2
    22    24    25    1
    23    25    26    2
    24    26    27    1
    25    27    28    1
    26    27    29    2
    27    29    30    1
    28    29    31    1
    29    31    32    1
    30    32    33    2
    31     9     1    1
    32    33    23    1
    33     7     2   ar
    34    32    25    1
    35    12    13    1
    36    19    22    1
@<TRIPOS>MOLECULE
*****
 33 36 0 0 0
SMALL
GASTEIGER

@<TRIPOS>ATOM
      1 C         139.6424  142.4491  160.5128 C.3     1  UNL1        0.1121
      2 C         139.7133  143.3168  159.2913 C.ar    1  UNL1       -0.0068
      3 C         139.4172  143.0424  157.8467 C.ar    1  UNL1       -0.0029
      4 C         139.5827  144.1303  156.8274 C.ar    1  UNL1       -0.0003
      5 C         140.0441  145.4927  157.2528 C.ar    1  UNL1       -0.0003
      6 C         140.3402  145.7671  158.6974 C.ar    1  UNL1       -0.0045
      7 C         140.1748  144.6792  159.7167 C.ar    1  UNL1       -0.0228
      8 C         140.3891  144.6534  161.2011 C.3     1  UNL1        0.0477
      9 C         140.0601  143.2752  161.6931 C.3     1  UNL1        0.0983
     10 C         138.0405  140.5895  161.3648 C.2     1  UNL1        0.2241
     11 O         137.2699  141.6115  162.1468 O.2     1  UNL1       -0.2750
     12 N         139.2268  141.0082  160.5478 N.am    1  UNL1       -0.3007
     13 H         139.7326  140.3374  160.0346 H       1  UNL1        0.1497
     14 C         137.6249  139.1486  161.3999 C.3     1  UNL1        0.1023
     15 C         138.6632  138.0709  161.5007 C.3     1  UNL1        0.0818
     16 C         140.9504  137.5755  162.6293 C.3     1  UNL1        0.0897
     17 N         139.5023  137.9514  162.7384 N.3     1  UNL1       -0.2699
     18 C         138.8934  138.2079  164.0850 C.3     1  UNL1        0.0897
     19 N         140.1355  142.8055  163.1157 N.am    1  UNL1       -0.2990
     20 C         141.0227  141.6517  163.4785 C.2     1  UNL1        0.2636
     21 O         141.8346  140.9677  162.4188 O.2     1  UNL1       -0.2685
     22 H         139.6026  143.2544  163.8112 H       1  UNL1        0.1498
     23 C         141.0981  141.1820  164.9011 C.2     1  UNL1        0.1341
     24 C         140.0281  141.3415  165.9402 C.2     1  UNL1        0.0250
     25 C         140.5255  140.7284  167.2156 C.2     1  UNL1        0.0179
     26 C         139.9021  140.5909  168.5730 C.2     1  UNL1        0.0329
     27 C         140.6561  139.9149  169.6795 C.2     1  UNL1        0.1637
     28 F         140.0327  139.7773  171.0369 F       1  UNL1       -0.2021
     29 C         142.0335  139.3765  169.4287 C.2     1  UNL1        0.1508
     30 F         142.7875  138.7005  170.5353 F       1  UNL1       -0.2061
     31 C         142.6569  139.5140  168.0714 C.3     1  UNL1        0.1045
     32 C         141.9029  140.1900  166.9648 C.2     1  UNL1        0.0660
     33 N         142.2568  140.4703  165.5344 N.2     1  UNL1       -0.2447
@<TRIPOS>BOND
     1    16    17    1
     2    17    18    1
     3    17    15    1
     4    15    14    1
     5    14    10    1
     6    10    11    2
     7    10    12   am
     8     1    12    1
     9     1     2    1
    10     2     3   ar
    11     3     4   ar
    12     4     5   ar
    13     5     6   ar
    14     6     7   ar
    15     7     8    1
    16     8     9    1
    17     9    19    1
    18    19    20   am
    19    20    21    2
    20    20    23    1
    21    23    24    2
    22    24    25    1
    23    25    26    2
    24    26    27    1
    25    27    28    1
    26    27    29    2
    27    29    30    1
    28    29    31    1
    29    31    32    1
    30    32    33    2
    31     9     1    1
    32    33    23    1
    33     7     2   ar
    34    32    25    1
    35    12    13    1
    36    19    22    1
@<TRIPOS>MOLECULE
*****
 33 36 0 0 0
SMALL
GASTEIGER

@<TRIPOS>ATOM
      1 C         142.3352  141.4058  165.7195 C.3     1  UNL1        0.1121
      2 C         142.6310  141.3292  167.1881 C.ar    1  UNL1       -0.0068
      3 C         143.0936  142.3609  168.1738 C.ar    1  UNL1       -0.0029
      4 C         143.3089  141.9830  169.6094 C.ar    1  UNL1       -0.0003
      5 C         143.0617  140.5736  170.0592 C.ar    1  UNL1       -0.0003
      6 C         142.5992  139.5419  169.0734 C.ar    1  UNL1       -0.0045
      7 C         142.3839  139.9198  167.6379 C.ar    1  UNL1       -0.0228
      8 C         141.9353  139.1252  166.4473 C.3     1  UNL1        0.0477
      9 C         141.9052  140.0436  165.2617 C.3     1  UNL1        0.0983
     10 C         141.3333  143.6315  164.8292 C.2     1  UNL1        0.2241
     11 O         140.1031  143.4094  165.6583 O.2     1  UNL1       -0.2750
     12 N         142.4493  142.6296  164.8598 N.am    1  UNL1       -0.3007
     13 H         143.2567  142.7754  164.3156 H       1  UNL1        0.1497
     14 C         141.4474  144.8553  163.9694 C.3     1  UNL1        0.1023
     15 C         142.7275  145.1449  163.2432 C.3     1  UNL1        0.0818
     16 C         144.5300  143.6185  162.1608 C.3     1  UNL1        0.0897
     17 N         143.1715  144.2535  162.1214 N.3     1  UNL1       -0.2699
     18 C         142.2571  143.9971  160.9604 C.3     1  UNL1        0.0897
     19 N         141.5138  139.6662  163.8637 N.am    1  UNL1       -0.2990
     20 C         142.5603  139.2182  162.8869 C.2     1  UNL1        0.2636
     21 O         143.9983  139.1477  163.3081 O.2     1  UNL1       -0.2685
     22 H         140.5701  139.7124  163.5872 H       1  UNL1        0.1498
     23 C         142.1689  138.8407  161.4890 C.2     1  UNL1        0.1341
     24 C         143.0669  138.2232  160.4583 C.2     1  UNL1        0.0250
     25 C         142.2638  138.0153  159.2085 C.2     1  UNL1        0.0179
     26 C         142.6221  137.4439  157.8687 C.2     1  UNL1        0.0329
     27 C         141.5860  137.3615  156.7872 C.2     1  UNL1        0.1637
     28 F         141.9442  136.7901  155.4473 F       1  UNL1       -0.2021
     29 C         140.1917  137.8506  157.0455 C.2     1  UNL1        0.1508
     30 F         139.1555  137.7682  155.9639 F       1  UNL1       -0.2061
     31 C         139.8334  138.4220  158.3853 C.3     1  UNL1        0.1045
     32 C         140.8695  138.5044  159.4668 C.2     1  UNL1        0.0660
     33 N         140.8108  139.0145  160.8762 N.2     1  UNL1       -0.2447
@<TRIPOS>BOND
     1    16    17    1
     2    17    18    1
     3    17    15    1
     4    15    14    1
     5    14    10    1
     6    10    11    2
     7    10    12   am
     8     1    12    1
     9     1     2    1
    10     2     3   ar
    11     3     4   ar
    12     4     5   ar
    13     5     6   ar
    14     6     7   ar
    15     7     8    1
    16     8     9    1
    17     9    19    1
    18    19    20   am
    19    20    21    2
    20    20    23    1
    21    23    24    2
    22    24    25    1
    23    25    26    2
    24    26    27    1
    25    27    28    1
    26    27    29    2
    27    29    30    1
    28    29    31    1
    29    31    32    1
    30    32    33    2
    31     9     1    1
    32    33    23    1
    33     7     2   ar
    34    32    25    1
    35    12    13    1
    36    19    22    1
@<TRIPOS>MOLECULE
*****
 33 36 0 0 0
SMALL
GASTEIGER

@<TRIPOS>ATOM
      1 C         141.2494  141.7025  166.2566 C.3     1  UNL1        0.1121
      2 C         140.6839  141.8245  167.6406 C.ar    1  UNL1       -0.0068
      3 C         140.7747  142.9119  168.6697 C.ar    1  UNL1       -0.0029
      4 C         140.0902  142.7498  169.9945 C.ar    1  UNL1       -0.0003
      5 C         139.3150  141.5001  170.2902 C.ar    1  UNL1       -0.0003
      6 C         139.2242  140.4127  169.2611 C.ar    1  UNL1       -0.0045
      7 C         139.9086  140.5749  167.9363 C.ar    1  UNL1       -0.0228
      8 C         139.9951  139.6806  166.7351 C.3     1  UNL1        0.0477
      9 C         140.8237  140.3776  165.6970 C.3     1  UNL1        0.0983
     10 C         141.4629  143.6756  164.5797 C.2     1  UNL1        0.2241
     11 O         139.9900  143.6018  164.3053 O.2     1  UNL1       -0.2750
     12 N         142.0925  142.7260  165.5554 N.am    1  UNL1       -0.3007
     13 H         143.0592  142.7744  165.7355 H       1  UNL1        0.1497
     14 C         142.3060  144.6990  163.8786 C.3     1  UNL1        0.1023
     15 C         143.7915  144.5117  163.7872 C.3     1  UNL1        0.0818
     16 C         145.2323  142.3564  163.9571 C.3     1  UNL1        0.0897
     17 N         144.3537  143.2720  163.1571 N.3     1  UNL1       -0.2699
     18 C         144.0374  142.9479  161.7271 C.3     1  UNL1        0.0897
     19 N         141.1664  139.8434  164.3379 N.am    1  UNL1       -0.2990
     20 C         140.1638  139.9251  163.2252 C.2     1  UNL1        0.2636
     21 O         138.8185  140.5411  163.4715 O.2     1  UNL1       -0.2685
     22 H         142.0494  139.4391  164.1762 H       1  UNL1        0.1498
     23 C         140.5066  139.3909  161.8661 C.2     1  UNL1        0.1341
     24 C         141.8542  138.9016  161.4251 C.2     1  UNL1        0.0250
     25 C         141.7424  138.4604  159.9958 C.2     1  UNL1        0.0179
     26 C         142.7476  137.8895  159.0401 C.2     1  UNL1        0.0329
     27 C         142.3360  137.5352  157.6419 C.2     1  UNL1        0.1637
     28 F         143.3412  136.9642  156.6860 F       1  UNL1       -0.2021
     29 C         140.9192  137.7518  157.1994 C.2     1  UNL1        0.1508
     30 F         140.5076  137.3975  155.8011 F       1  UNL1       -0.2061
     31 C         139.9140  138.3228  158.1552 C.3     1  UNL1        0.1045
     32 C         140.3256  138.6771  159.5534 C.2     1  UNL1        0.0660
     33 N         139.5617  139.2521  160.7092 N.2     1  UNL1       -0.2447
@<TRIPOS>BOND
     1    16    17    1
     2    17    18    1
     3    17    15    1
     4    15    14    1
     5    14    10    1
     6    10    11    2
     7    10    12   am
     8     1    12    1
     9     1     2    1
    10     2     3   ar
    11     3     4   ar
    12     4     5   ar
    13     5     6   ar
    14     6     7   ar
    15     7     8    1
    16     8     9    1
    17     9    19    1
    18    19    20   am
    19    20    21    2
    20    20    23    1
    21    23    24    2
    22    24    25    1
    23    25    26    2
    24    26    27    1
    25    27    28    1
    26    27    29    2
    27    29    30    1
    28    29    31    1
    29    31    32    1
    30    32    33    2
    31     9     1    1
    32    33    23    1
    33     7     2   ar
    34    32    25    1
    35    12    13    1
    36    19    22    1
