@<TRIPOS>MOLECULE
*****
 45 48 0 0 0
SMALL
GASTEIGER

@<TRIPOS>ATOM
      1 C         141.9868  141.3436  162.6708 C.3     1  UNL1        0.0779
      2 C         142.2888  141.5575  164.1245 C.ar    1  UNL1        0.0373
      3 C         141.4291  140.9138  165.1717 C.ar    1  UNL1        0.0023
      4 C         141.7311  141.1277  166.6253 C.ar    1  UNL1        0.0183
      5 C         140.8714  140.4840  167.6725 C.ar    1  UNL1        0.0118
      6 C         141.1735  140.6979  169.1262 C.ar    1  UNL1        0.0685
      7 C         142.3352  141.5553  169.5326 C.ar    1  UNL1        0.0118
      8 C         143.1949  142.1990  168.4854 C.ar    1  UNL1        0.0199
      9 C         142.8929  141.9852  167.0318 C.ar    1  UNL1        0.0844
     10 N         143.7526  142.6288  165.9846 N.ar    1  UNL1       -0.2119
     11 C         143.4505  142.4149  164.5309 C.ar    1  UNL1        0.2211
     12 C         140.3138  140.0543  170.1734 C.1     1  UNL1        0.1004
     13 N         139.4541  139.4106  171.2207 N.1     1  UNL1       -0.1908
     14 O         144.3102  143.0586  163.4837 O.3     1  UNL1       -0.4563
     15 C         144.0380  144.4694  163.0531 C.3     1  UNL1        0.2542
     16 C         139.2586  144.0676  161.7293 C.ar    1  UNL1        0.2257
     17 C         140.0141  143.0256  162.4995 C.ar    1  UNL1        0.0539
     18 C         141.2314  142.3857  161.9006 C.ar    1  UNL1       -0.0083
     19 C         141.6933  142.7879  160.5313 C.ar    1  UNL1        0.0307
     20 C         140.9378  143.8301  159.7610 C.ar    1  UNL1        0.1346
     21 N         139.7205  144.4699  160.3599 N.ar    1  UNL1       -0.1967
     22 N         141.3997  144.2323  158.3918 N.pl3   1  UNL1       -0.2897
     23 C         141.6370  145.6792  158.0753 C.3     1  UNL1        0.1136
     24 C         141.6244  143.1877  157.3390 C.3     1  UNL1        0.1136
     25 O         138.0413  144.7075  162.3282 O.3     1  UNL1       -0.4602
     26 C         138.3017  144.6519  164.9126 C.3     1  UNL1        0.0512
     27 C         137.5478  144.2666  163.6744 C.3     1  UNL1        0.2072
     28 C         142.4402  140.0876  161.9875 C.3     1  UNL1        0.1161
     29 O         143.8485  140.6038  161.9734 O.3     1  UNL1       -0.3820
     30 H         144.4265  139.9547  161.5425 H       1  UNL1        0.2107
     31 C         141.0319  139.5715  162.0016 C.ar    1  UNL1        0.0117
     32 C         140.5231  138.8126  163.1912 C.ar    1  UNL1        0.0559
     33 C         139.1148  138.2965  163.2053 C.ar    1  UNL1        0.2272
     34 N         138.2152  138.5393  162.0299 N.ar    1  UNL1       -0.1767
     35 C         138.7239  139.2983  160.8403 C.ar    1  UNL1        0.2272
     36 C         140.1323  139.8144  160.8262 C.ar    1  UNL1        0.0559
     37 O         138.6060  137.5375  164.3950 O.3     1  UNL1       -0.4561
     38 C         138.5392  138.2039  165.7372 C.3     1  UNL1        0.2542
     39 O         137.8243  139.5411  159.6648 O.3     1  UNL1       -0.4561
     40 C         138.2654  140.4533  158.5587 C.3     1  UNL1        0.2542
     41 C         142.8936  138.8317  161.3042 C.3     1  UNL1        0.0491
     42 C         143.9562  138.8946  160.2472 C.3     1  UNL1        0.0750
     43 N         143.6237  139.4128  158.8794 N.3     1  UNL1       -0.2702
     44 C         142.7470  138.6090  157.9655 C.3     1  UNL1        0.0897
     45 C         144.1679  140.7349  158.4255 C.3     1  UNL1        0.0897
@<TRIPOS>BOND
     1    26    27    1
     2    27    25    1
     3    25    16    1
     4    16    17   ar
     5    17    18   ar
     6     1    18    1
     7     1     2    1
     8     2     3   ar
     9     3     4   ar
    10     4     5   ar
    11     5     6   ar
    12     6    12    1
    13    12    13    3
    14     6     7   ar
    15     7     8   ar
    16     8     9   ar
    17     9    10   ar
    18    10    11   ar
    19    11    14    1
    20    14    15    1
    21     1    28    1
    22    28    29    1
    23    28    41    1
    24    41    42    1
    25    42    43    1
    26    43    44    1
    27    43    45    1
    28    28    31    1
    29    31    32   ar
    30    32    33   ar
    31    33    37    1
    32    37    38    1
    33    33    34   ar
    34    34    35   ar
    35    35    39    1
    36    39    40    1
    37    35    36   ar
    38    18    19   ar
    39    19    20   ar
    40    20    22    1
    41    22    23    1
    42    22    24    1
    43    20    21   ar
    44    21    16   ar
    45    11     2   ar
    46    36    31   ar
    47     9     4   ar
    48    29    30    1
@<TRIPOS>MOLECULE
*****
 45 48 0 0 0
SMALL
GASTEIGER

@<TRIPOS>ATOM
      1 C         140.7837  140.0798  162.0853 C.3     1  UNL1        0.0779
      2 C         140.1991  139.8235  163.4428 C.ar    1  UNL1        0.0373
      3 C         140.6439  140.6430  164.6178 C.ar    1  UNL1        0.0023
      4 C         140.0594  140.3868  165.9752 C.ar    1  UNL1        0.0183
      5 C         140.5041  141.2063  167.1502 C.ar    1  UNL1        0.0118
      6 C         139.9195  140.9500  168.5076 C.ar    1  UNL1        0.0685
      7 C         138.8902  139.8743  168.6900 C.ar    1  UNL1        0.0118
      8 C         138.4455  139.0548  167.5150 C.ar    1  UNL1        0.0199
      9 C         139.0300  139.3110  166.1576 C.ar    1  UNL1        0.0844
     10 N         138.5852  138.4915  164.9826 N.ar    1  UNL1       -0.2119
     11 C         139.1698  138.7478  163.6252 C.ar    1  UNL1        0.2211
     12 C         140.3643  141.7695  169.6826 C.1     1  UNL1        0.1004
     13 N         140.8091  142.5890  170.8576 N.1     1  UNL1       -0.1908
     14 O         138.7251  137.9283  162.4502 O.3     1  UNL1       -0.4563
     15 C         137.5896  138.4020  161.5922 C.3     1  UNL1        0.2542
     16 C         139.3793  143.6868  161.2098 C.ar    1  UNL1        0.2257
     17 C         139.8160  142.4894  162.0006 C.ar    1  UNL1        0.0539
     18 C         140.3470  141.2772  161.2945 C.ar    1  UNL1       -0.0083
     19 C         140.4412  141.2624  159.7976 C.ar    1  UNL1        0.0307
     20 C         140.0044  142.4599  159.0067 C.ar    1  UNL1        0.1346
     21 N         139.4734  143.6721  159.7128 N.ar    1  UNL1       -0.1967
     22 N         140.0986  142.4451  157.5097 N.pl3   1  UNL1       -0.2897
     23 C         138.9321  142.8938  156.6804 C.3     1  UNL1        0.1136
     24 C         141.3593  141.9815  156.8421 C.3     1  UNL1        0.1136
     25 O         138.8483  144.8991  161.9160 O.3     1  UNL1       -0.4602
     26 C         138.0943  144.3481  164.3404 C.3     1  UNL1        0.0512
     27 C         139.0309  145.0439  163.3978 C.3     1  UNL1        0.2072
     28 C         141.8051  139.1387  161.5187 C.3     1  UNL1        0.1161
     29 O         140.7639  138.5561  160.6095 O.3     1  UNL1       -0.3820
     30 H         141.1592  137.8483  160.0770 H       1  UNL1        0.2107
     31 C         142.8463  139.7212  162.4278 C.ar    1  UNL1        0.0117
     32 C         143.3597  138.9225  163.5890 C.ar    1  UNL1        0.0559
     33 C         144.4009  139.5051  164.4982 C.ar    1  UNL1        0.2272
     34 N         144.9286  140.8864  164.2462 N.ar    1  UNL1       -0.1767
     35 C         144.4152  141.6851  163.0850 C.ar    1  UNL1        0.2272
     36 C         143.3740  141.1025  162.1758 C.ar    1  UNL1        0.0559
     37 O         144.9144  138.7063  165.6594 O.3     1  UNL1       -0.4561
     38 C         143.9522  137.9991  166.5672 C.3     1  UNL1        0.2542
     39 O         144.9429  143.0664  162.8329 O.3     1  UNL1       -0.4561
     40 C         144.0759  144.2609  163.1004 C.3     1  UNL1        0.2542
     41 C         142.8265  138.1975  160.9521 C.3     1  UNL1        0.0491
     42 C         142.7421  137.7757  159.5150 C.3     1  UNL1        0.0750
     43 N         143.1113  138.7404  158.4274 N.3     1  UNL1       -0.2702
     44 C         143.8739  139.9887  158.7591 C.3     1  UNL1        0.0897
     45 C         142.7177  138.4568  157.0079 C.3     1  UNL1        0.0897
@<TRIPOS>BOND
     1    26    27    1
     2    27    25    1
     3    25    16    1
     4    16    17   ar
     5    17    18   ar
     6     1    18    1
     7     1     2    1
     8     2     3   ar
     9     3     4   ar
    10     4     5   ar
    11     5     6   ar
    12     6    12    1
    13    12    13    3
    14     6     7   ar
    15     7     8   ar
    16     8     9   ar
    17     9    10   ar
    18    10    11   ar
    19    11    14    1
    20    14    15    1
    21     1    28    1
    22    28    29    1
    23    28    41    1
    24    41    42    1
    25    42    43    1
    26    43    44    1
    27    43    45    1
    28    28    31    1
    29    31    32   ar
    30    32    33   ar
    31    33    37    1
    32    37    38    1
    33    33    34   ar
    34    34    35   ar
    35    35    39    1
    36    39    40    1
    37    35    36   ar
    38    18    19   ar
    39    19    20   ar
    40    20    22    1
    41    22    23    1
    42    22    24    1
    43    20    21   ar
    44    21    16   ar
    45    11     2   ar
    46    36    31   ar
    47     9     4   ar
    48    29    30    1
@<TRIPOS>MOLECULE
*****
 45 48 0 0 0
SMALL
GASTEIGER

@<TRIPOS>ATOM
      1 C         142.0153  142.4209  162.2118 C.3     1  UNL1        0.0779
      2 C         142.3078  142.3963  163.6828 C.ar    1  UNL1        0.0373
      3 C         141.2409  141.9829  164.6528 C.ar    1  UNL1        0.0023
      4 C         141.5333  141.9583  166.1238 C.ar    1  UNL1        0.0183
      5 C         140.4664  141.5449  167.0938 C.ar    1  UNL1        0.0118
      6 C         140.7589  141.5203  168.5648 C.ar    1  UNL1        0.0685
      7 C         142.1182  141.9091  169.0658 C.ar    1  UNL1        0.0118
      8 C         143.1851  142.3226  168.0959 C.ar    1  UNL1        0.0199
      9 C         142.8927  142.3472  166.6249 C.ar    1  UNL1        0.0844
     10 N         143.9596  142.7606  165.6549 N.ar    1  UNL1       -0.2119
     11 C         143.6671  142.7852  164.1838 C.ar    1  UNL1        0.2211
     12 C         139.6921  141.1068  169.5348 C.1     1  UNL1        0.1004
     13 N         138.6252  140.6934  170.5048 N.1     1  UNL1       -0.1908
     14 O         144.7339  143.1986  163.2139 O.3     1  UNL1       -0.4563
     15 C         145.6121  142.1620  162.5781 C.3     1  UNL1        0.2542
     16 C         142.0504  138.6143  161.0900 C.ar    1  UNL1        0.2257
     17 C         141.8337  139.8458  161.9185 C.ar    1  UNL1        0.0539
     18 C         142.2320  141.1894  161.3833 C.ar    1  UNL1       -0.0083
     19 C         142.8469  141.3014  160.0198 C.ar    1  UNL1        0.0307
     20 C         143.0636  140.0698  159.1913 C.ar    1  UNL1        0.1346
     21 N         142.6653  138.7263  159.7264 N.ar    1  UNL1       -0.1967
     22 N         143.6785  140.1818  157.8278 N.pl3   1  UNL1       -0.2897
     23 C         143.1873  139.3108  156.7097 C.3     1  UNL1        0.1136
     24 C         144.7845  141.1648  157.5822 C.3     1  UNL1        0.1136
     25 O         141.6521  137.2708  161.6251 O.3     1  UNL1       -0.4602
     26 C         139.6025  137.4950  163.2058 C.3     1  UNL1        0.0512
     27 C         141.0485  137.1575  162.9937 C.3     1  UNL1        0.2072
     28 C         141.5061  143.6770  161.5692 C.3     1  UNL1        0.1161
     29 O         142.8993  144.0164  161.1287 O.3     1  UNL1       -0.3820
     30 H         142.8910  144.8616  160.6528 H       1  UNL1        0.2107
     31 C         140.1130  143.3377  162.0097 C.ar    1  UNL1        0.0117
     32 C         139.3480  142.2541  161.3094 C.ar    1  UNL1        0.0559
     33 C         137.9549  141.9147  161.7499 C.ar    1  UNL1        0.2272
     34 N         137.3267  142.6590  162.8907 N.ar    1  UNL1       -0.1767
     35 C         138.0918  143.7426  163.5910 C.ar    1  UNL1        0.2272
     36 C         139.4849  144.0819  163.1505 C.ar    1  UNL1        0.0559
     37 O         137.1898  140.8311  161.0495 O.3     1  UNL1       -0.4561
     38 C         137.8968  139.5900  160.5912 C.3     1  UNL1        0.2542
     39 O         137.4637  144.4869  164.7319 O.3     1  UNL1       -0.4561
     40 C         138.3259  145.0721  165.8109 C.3     1  UNL1        0.2542
     41 C         140.9970  144.9332  160.9267 C.3     1  UNL1        0.0491
     42 C         141.4491  145.3056  159.5457 C.3     1  UNL1        0.0750
     43 N         141.2267  144.3596  158.4031 N.3     1  UNL1       -0.2702
     44 C         142.3797  143.9438  157.5385 C.3     1  UNL1        0.0897
     45 C         139.8513  143.8294  158.1252 C.3     1  UNL1        0.0897
@<TRIPOS>BOND
     1    26    27    1
     2    27    25    1
     3    25    16    1
     4    16    17   ar
     5    17    18   ar
     6     1    18    1
     7     1     2    1
     8     2     3   ar
     9     3     4   ar
    10     4     5   ar
    11     5     6   ar
    12     6    12    1
    13    12    13    3
    14     6     7   ar
    15     7     8   ar
    16     8     9   ar
    17     9    10   ar
    18    10    11   ar
    19    11    14    1
    20    14    15    1
    21     1    28    1
    22    28    29    1
    23    28    41    1
    24    41    42    1
    25    42    43    1
    26    43    44    1
    27    43    45    1
    28    28    31    1
    29    31    32   ar
    30    32    33   ar
    31    33    37    1
    32    37    38    1
    33    33    34   ar
    34    34    35   ar
    35    35    39    1
    36    39    40    1
    37    35    36   ar
    38    18    19   ar
    39    19    20   ar
    40    20    22    1
    41    22    23    1
    42    22    24    1
    43    20    21   ar
    44    21    16   ar
    45    11     2   ar
    46    36    31   ar
    47     9     4   ar
    48    29    30    1
@<TRIPOS>MOLECULE
*****
 45 48 0 0 0
SMALL
GASTEIGER

@<TRIPOS>ATOM
      1 C         141.9771  142.5375  162.1383 C.3     1  UNL1        0.0779
      2 C         142.3102  142.4939  163.6003 C.ar    1  UNL1        0.0373
      3 C         141.2593  142.1054  164.5976 C.ar    1  UNL1        0.0023
      4 C         141.5924  142.0618  166.0595 C.ar    1  UNL1        0.0183
      5 C         140.5415  141.6733  167.0569 C.ar    1  UNL1        0.0118
      6 C         140.8746  141.6297  168.5188 C.ar    1  UNL1        0.0685
      7 C         142.2585  141.9745  168.9833 C.ar    1  UNL1        0.0118
      8 C         143.3094  142.3630  167.9860 C.ar    1  UNL1        0.0199
      9 C         142.9764  142.4066  166.5241 C.ar    1  UNL1        0.0844
     10 N         144.0272  142.7951  165.5267 N.ar    1  UNL1       -0.2119
     11 C         143.6941  142.8387  164.0648 C.ar    1  UNL1        0.2211
     12 C         139.8237  141.2413  169.5162 C.1     1  UNL1        0.1004
     13 N         138.7729  140.8528  170.5136 N.1     1  UNL1       -0.1908
     14 O         144.7450  143.2272  163.0674 O.3     1  UNL1       -0.4563
     15 C         145.5713  142.1693  162.3981 C.3     1  UNL1        0.2542
     16 C         142.0575  138.7404  160.9870 C.ar    1  UNL1        0.2257
     17 C         141.8592  139.9595  161.8381 C.ar    1  UNL1        0.0539
     18 C         142.1754  141.3184  161.2872 C.ar    1  UNL1       -0.0083
     19 C         142.6900  141.4582  159.8852 C.ar    1  UNL1        0.0307
     20 C         142.8884  140.2390  159.0340 C.ar    1  UNL1        0.1346
     21 N         142.5721  138.8802  159.5849 N.ar    1  UNL1       -0.1967
     22 N         143.4030  140.3788  157.6320 N.pl3   1  UNL1       -0.2897
     23 C         144.8044  140.8563  157.3917 C.3     1  UNL1        0.1136
     24 C         142.5161  140.0411  156.4704 C.3     1  UNL1        0.1136
     25 O         141.7412  137.3816  161.5379 O.3     1  UNL1       -0.4602
     26 C         141.3216  137.1514  164.0915 C.3     1  UNL1        0.0512
     27 C         140.7921  137.2421  162.6910 C.3     1  UNL1        0.2072
     28 C         141.4456  143.8002  161.5276 C.3     1  UNL1        0.1161
     29 O         142.8264  144.1561  161.0618 O.3     1  UNL1       -0.3820
     30 H         142.8021  145.0087  160.5999 H       1  UNL1        0.2107
     31 C         140.0649  143.4444  161.9933 C.ar    1  UNL1        0.0117
     32 C         139.4366  144.2022  163.1250 C.ar    1  UNL1        0.0559
     33 C         138.0558  143.8463  163.5908 C.ar    1  UNL1        0.2272
     34 N         137.3034  142.7327  162.9247 N.ar    1  UNL1       -0.1767
     35 C         137.9317  141.9749  161.7929 C.ar    1  UNL1        0.2272
     36 C         139.3125  142.3308  161.3272 C.ar    1  UNL1        0.0559
     37 O         137.4275  144.6042  164.7226 O.3     1  UNL1       -0.4561
     38 C         138.2720  145.0780  165.8681 C.3     1  UNL1        0.2542
     39 O         137.1793  140.8612  161.1268 O.3     1  UNL1       -0.4561
     40 C         137.8379  140.0497  160.0509 C.3     1  UNL1        0.2542
     41 C         140.9142  145.0630  160.9168 C.3     1  UNL1        0.0491
     42 C         140.2519  145.0245  159.5714 C.3     1  UNL1        0.0750
     43 N         141.0541  144.6863  158.3500 N.3     1  UNL1       -0.2702
     44 C         140.8317  143.3816  157.6441 C.3     1  UNL1        0.0897
     45 C         142.0788  145.6529  157.8343 C.3     1  UNL1        0.0897
@<TRIPOS>BOND
     1    26    27    1
     2    27    25    1
     3    25    16    1
     4    16    17   ar
     5    17    18   ar
     6     1    18    1
     7     1     2    1
     8     2     3   ar
     9     3     4   ar
    10     4     5   ar
    11     5     6   ar
    12     6    12    1
    13    12    13    3
    14     6     7   ar
    15     7     8   ar
    16     8     9   ar
    17     9    10   ar
    18    10    11   ar
    19    11    14    1
    20    14    15    1
    21     1    28    1
    22    28    29    1
    23    28    41    1
    24    41    42    1
    25    42    43    1
    26    43    44    1
    27    43    45    1
    28    28    31    1
    29    31    32   ar
    30    32    33   ar
    31    33    37    1
    32    37    38    1
    33    33    34   ar
    34    34    35   ar
    35    35    39    1
    36    39    40    1
    37    35    36   ar
    38    18    19   ar
    39    19    20   ar
    40    20    22    1
    41    22    23    1
    42    22    24    1
    43    20    21   ar
    44    21    16   ar
    45    11     2   ar
    46    36    31   ar
    47     9     4   ar
    48    29    30    1
@<TRIPOS>MOLECULE
*****
 45 48 0 0 0
SMALL
GASTEIGER

@<TRIPOS>ATOM
      1 C         141.2438  141.2038  161.4474 C.3     1  UNL1        0.0779
      2 C         140.5081  140.3323  162.4218 C.ar    1  UNL1        0.0373
      3 C         140.4145  140.7331  163.8642 C.ar    1  UNL1        0.0023
      4 C         139.6789  139.8616  164.8385 C.ar    1  UNL1        0.0183
      5 C         139.5853  140.2625  166.2809 C.ar    1  UNL1        0.0118
      6 C         138.8496  139.3909  167.2553 C.ar    1  UNL1        0.0685
      7 C         138.2076  138.1187  166.7872 C.ar    1  UNL1        0.0118
      8 C         138.3013  137.7178  165.3448 C.ar    1  UNL1        0.0199
      9 C         139.0369  138.5893  164.3705 C.ar    1  UNL1        0.0844
     10 N         139.1305  138.1885  162.9281 N.ar    1  UNL1       -0.2119
     11 C         139.8662  139.0600  161.9537 C.ar    1  UNL1        0.2211
     12 C         138.7560  139.7918  168.6977 C.1     1  UNL1        0.1004
     13 N         138.6623  140.1926  170.1402 N.1     1  UNL1       -0.1908
     14 O         139.9598  138.6592  160.5113 O.3     1  UNL1       -0.4563
     15 C         138.9007  139.0935  159.5419 C.3     1  UNL1        0.2542
     16 C         139.1805  144.5875  161.6543 C.ar    1  UNL1        0.2257
     17 C         139.7217  143.2337  162.0066 C.ar    1  UNL1        0.0539
     18 C         140.7025  142.5576  161.0951 C.ar    1  UNL1       -0.0083
     19 C         141.1421  143.2354  159.8312 C.ar    1  UNL1        0.0307
     20 C         140.6009  144.5893  159.4788 C.ar    1  UNL1        0.1346
     21 N         139.6200  145.2653  160.3903 N.ar    1  UNL1       -0.1967
     22 N         141.0404  145.2670  158.2149 N.pl3   1  UNL1       -0.2897
     23 C         142.3919  144.9702  157.6358 C.3     1  UNL1        0.1136
     24 C         140.1285  146.2414  157.5302 C.3     1  UNL1        0.1136
     25 O         138.1997  145.2636  162.5658 O.3     1  UNL1       -0.4602
     26 C         138.5957  144.7325  165.0780 C.3     1  UNL1        0.0512
     27 C         137.7682  144.5905  163.8350 C.3     1  UNL1        0.2072
     28 C         142.5207  140.7214  160.8254 C.3     1  UNL1        0.1161
     29 O         141.8007  140.4847  159.5310 O.3     1  UNL1       -0.3820
     30 H         142.4213  140.1279  158.8764 H       1  UNL1        0.2107
     31 C         143.2406  140.9582  162.1198 C.ar    1  UNL1        0.0117
     32 C         143.7010  139.7939  162.9459 C.ar    1  UNL1        0.0559
     33 C         144.4209  140.0306  164.2403 C.ar    1  UNL1        0.2272
     34 N         144.6806  141.4317  164.7087 N.ar    1  UNL1       -0.1767
     35 C         144.2203  142.5960  163.8827 C.ar    1  UNL1        0.2272
     36 C         143.5003  142.3593  162.5883 C.ar    1  UNL1        0.0559
     37 O         144.8813  138.8662  165.0664 O.3     1  UNL1       -0.4561
     38 C         143.9900  138.3056  166.1347 C.3     1  UNL1        0.2542
     39 O         144.4799  143.9972  164.3511 O.3     1  UNL1       -0.4561
     40 C         143.6762  145.1350  163.7949 C.3     1  UNL1        0.2542
     41 C         143.7976  140.2391  160.2034 C.3     1  UNL1        0.0491
     42 C         143.7620  139.4810  158.9095 C.3     1  UNL1        0.0750
     43 N         143.1792  138.0995  158.8655 N.3     1  UNL1       -0.2702
     44 C         143.0940  137.2811  160.1196 C.3     1  UNL1        0.0897
     45 C         142.6815  137.5365  157.5672 C.3     1  UNL1        0.0897
@<TRIPOS>BOND
     1    26    27    1
     2    27    25    1
     3    25    16    1
     4    16    17   ar
     5    17    18   ar
     6     1    18    1
     7     1     2    1
     8     2     3   ar
     9     3     4   ar
    10     4     5   ar
    11     5     6   ar
    12     6    12    1
    13    12    13    3
    14     6     7   ar
    15     7     8   ar
    16     8     9   ar
    17     9    10   ar
    18    10    11   ar
    19    11    14    1
    20    14    15    1
    21     1    28    1
    22    28    29    1
    23    28    41    1
    24    41    42    1
    25    42    43    1
    26    43    44    1
    27    43    45    1
    28    28    31    1
    29    31    32   ar
    30    32    33   ar
    31    33    37    1
    32    37    38    1
    33    33    34   ar
    34    34    35   ar
    35    35    39    1
    36    39    40    1
    37    35    36   ar
    38    18    19   ar
    39    19    20   ar
    40    20    22    1
    41    22    23    1
    42    22    24    1
    43    20    21   ar
    44    21    16   ar
    45    11     2   ar
    46    36    31   ar
    47     9     4   ar
    48    29    30    1
@<TRIPOS>MOLECULE
*****
 45 48 0 0 0
SMALL
GASTEIGER

@<TRIPOS>ATOM
      1 C         140.8198  139.9696  162.1937 C.3     1  UNL1        0.0779
      2 C         140.2009  139.7314  163.5392 C.ar    1  UNL1        0.0373
      3 C         140.6385  140.5456  164.7206 C.ar    1  UNL1        0.0023
      4 C         140.0196  140.3075  166.0661 C.ar    1  UNL1        0.0183
      5 C         140.4571  141.1216  167.2475 C.ar    1  UNL1        0.0118
      6 C         139.8383  140.8834  168.5930 C.ar    1  UNL1        0.0685
      7 C         138.7819  139.8312  168.7571 C.ar    1  UNL1        0.0118
      8 C         138.3444  139.0171  167.5756 C.ar    1  UNL1        0.0199
      9 C         138.9632  139.2552  166.2302 C.ar    1  UNL1        0.0844
     10 N         138.5257  138.4411  165.0487 N.ar    1  UNL1       -0.2119
     11 C         139.1446  138.6792  163.7032 C.ar    1  UNL1        0.2211
     12 C         140.2758  141.6975  169.7745 C.1     1  UNL1        0.1004
     13 N         140.7133  142.5117  170.9559 N.1     1  UNL1       -0.1908
     14 O         138.7071  137.8651  162.5218 O.3     1  UNL1       -0.4563
     15 C         137.5847  138.3485  161.6521 C.3     1  UNL1        0.2542
     16 C         140.1298  142.3922  159.1270 C.ar    1  UNL1        0.2257
     17 C         140.4881  141.1644  159.9106 C.ar    1  UNL1        0.0539
     18 C         140.4615  141.1974  161.4100 C.ar    1  UNL1       -0.0083
     19 C         140.0767  142.4581  162.1258 C.ar    1  UNL1        0.0307
     20 C         139.7184  143.6860  161.3422 C.ar    1  UNL1        0.1346
     21 N         139.7449  143.6531  159.8428 N.ar    1  UNL1       -0.1967
     22 N         139.3335  144.9467  162.0580 N.pl3   1  UNL1       -0.2897
     23 C         138.5049  144.8773  163.3064 C.3     1  UNL1        0.1136
     24 C         139.7773  146.2769  161.5254 C.3     1  UNL1        0.1136
     25 O         140.1563  142.3593  157.6276 O.3     1  UNL1       -0.4602
     26 C         137.5986  142.4155  157.1748 C.3     1  UNL1        0.0512
     27 C         138.9605  141.8676  156.8670 C.3     1  UNL1        0.2072
     28 C         141.7970  138.9799  161.6318 C.3     1  UNL1        0.1161
     29 O         140.7240  138.4254  160.7424 O.3     1  UNL1       -0.3820
     30 H         141.0852  137.6943  160.2171 H       1  UNL1        0.2107
     31 C         142.8700  139.5345  162.5213 C.ar    1  UNL1        0.0117
     32 C         143.3482  138.7433  163.7025 C.ar    1  UNL1        0.0559
     33 C         144.4212  139.2978  164.5920 C.ar    1  UNL1        0.2272
     34 N         145.0161  140.6435  164.3002 N.ar    1  UNL1       -0.1767
     35 C         144.5379  141.4347  163.1189 C.ar    1  UNL1        0.2272
     36 C         143.4649  140.8801  162.2295 C.ar    1  UNL1        0.0559
     37 O         144.8994  138.5066  165.7733 O.3     1  UNL1       -0.4561
     38 C         143.9075  137.8546  166.6904 C.3     1  UNL1        0.2542
     39 O         145.1328  142.7805  162.8271 O.3     1  UNL1       -0.4561
     40 C         144.2596  143.8950  162.3318 C.3     1  UNL1        0.2542
     41 C         142.7742  137.9902  161.0700 C.3     1  UNL1        0.0491
     42 C         142.7715  137.6845  159.6014 C.3     1  UNL1        0.0750
     43 N         142.8184  138.8026  158.6026 N.3     1  UNL1       -0.2702
     44 C         143.7924  139.9290  158.7828 C.3     1  UNL1        0.0897
     45 C         141.8912  138.7942  157.4234 C.3     1  UNL1        0.0897
@<TRIPOS>BOND
     1    26    27    1
     2    27    25    1
     3    25    16    1
     4    16    17   ar
     5    17    18   ar
     6     1    18    1
     7     1     2    1
     8     2     3   ar
     9     3     4   ar
    10     4     5   ar
    11     5     6   ar
    12     6    12    1
    13    12    13    3
    14     6     7   ar
    15     7     8   ar
    16     8     9   ar
    17     9    10   ar
    18    10    11   ar
    19    11    14    1
    20    14    15    1
    21     1    28    1
    22    28    29    1
    23    28    41    1
    24    41    42    1
    25    42    43    1
    26    43    44    1
    27    43    45    1
    28    28    31    1
    29    31    32   ar
    30    32    33   ar
    31    33    37    1
    32    37    38    1
    33    33    34   ar
    34    34    35   ar
    35    35    39    1
    36    39    40    1
    37    35    36   ar
    38    18    19   ar
    39    19    20   ar
    40    20    22    1
    41    22    23    1
    42    22    24    1
    43    20    21   ar
    44    21    16   ar
    45    11     2   ar
    46    36    31   ar
    47     9     4   ar
    48    29    30    1
@<TRIPOS>MOLECULE
*****
 45 48 0 0 0
SMALL
GASTEIGER

@<TRIPOS>ATOM
      1 C         140.2830  140.4489  162.4464 C.3     1  UNL1        0.0779
      2 C         140.2132  140.3073  163.9381 C.ar    1  UNL1        0.0373
      3 C         140.3012  141.5235  164.8118 C.ar    1  UNL1        0.0023
      4 C         140.2315  141.3820  166.3034 C.ar    1  UNL1        0.0183
      5 C         140.3195  142.5981  167.1771 C.ar    1  UNL1        0.0118
      6 C         140.2497  142.4565  168.6688 C.ar    1  UNL1        0.0685
      7 C         140.0920  141.0989  169.2868 C.ar    1  UNL1        0.0118
      8 C         140.0040  139.8828  168.4131 C.ar    1  UNL1        0.0199
      9 C         140.0737  140.0243  166.9215 C.ar    1  UNL1        0.0844
     10 N         139.9858  138.8082  166.0478 N.ar    1  UNL1       -0.2119
     11 C         140.0555  138.9497  164.5561 C.ar    1  UNL1        0.2211
     12 C         140.3377  143.6726  169.5425 C.1     1  UNL1        0.1004
     13 N         140.4257  144.8888  170.4162 N.1     1  UNL1       -0.1908
     14 O         139.9675  137.7336  163.6824 O.3     1  UNL1       -0.4563
     15 C         141.2145  136.9921  163.3013 C.3     1  UNL1        0.2542
     16 C         144.1601  140.8990  161.7284 C.ar    1  UNL1        0.2257
     17 C         142.8326  140.9477  162.4252 C.ar    1  UNL1        0.0539
     18 C         141.6104  140.4001  161.7496 C.ar    1  UNL1       -0.0083
     19 C         141.7157  139.8037  160.3774 C.ar    1  UNL1        0.0307
     20 C         143.0432  139.7549  159.6805 C.ar    1  UNL1        0.1346
     21 N         144.2654  140.3025  160.3561 N.ar    1  UNL1       -0.1967
     22 N         143.1484  139.1585  158.3083 N.pl3   1  UNL1       -0.2897
     23 C         143.7139  139.9688  157.1798 C.3     1  UNL1        0.1136
     24 C         142.6881  137.7519  158.0645 C.3     1  UNL1        0.1136
     25 O         145.3823  141.4466  162.4040 O.3     1  UNL1       -0.4602
     26 C         144.9125  142.7323  164.6122 C.3     1  UNL1        0.0512
     27 C         145.4414  141.5222  163.9010 C.3     1  UNL1        0.2072
     28 C         139.0253  140.6392  161.6515 C.3     1  UNL1        0.1161
     29 O         138.7537  139.1661  161.7285 O.3     1  UNL1       -0.3820
     30 H         137.9348  138.9628  161.2498 H       1  UNL1        0.2107
     31 C         139.2969  142.1124  161.5744 C.ar    1  UNL1        0.0117
     32 C         139.8625  142.7061  160.3185 C.ar    1  UNL1        0.0559
     33 C         140.1341  144.1793  160.2415 C.ar    1  UNL1        0.2272
     34 N         139.8401  145.0588  161.4204 N.ar    1  UNL1       -0.1767
     35 C         139.2744  144.4651  162.6764 C.ar    1  UNL1        0.2272
     36 C         139.0028  142.9919  162.7534 C.ar    1  UNL1        0.0559
     37 O         140.6998  144.7730  158.9854 O.3     1  UNL1       -0.4561
     38 C         141.9340  144.1853  158.3678 C.3     1  UNL1        0.2542
     39 O         138.9804  145.3446  163.8555 O.3     1  UNL1       -0.4561
     40 C         138.4163  144.7506  165.1120 C.3     1  UNL1        0.2542
     41 C         137.7675  140.8296  160.8565 C.3     1  UNL1        0.0491
     42 C         137.4639  139.9191  159.7037 C.3     1  UNL1        0.0750
     43 N         138.0455  140.2028  158.3505 N.3     1  UNL1       -0.2702
     44 C         139.2752  139.4746  157.8951 C.3     1  UNL1        0.0897
     45 C         137.3975  141.2148  157.4528 C.3     1  UNL1        0.0897
@<TRIPOS>BOND
     1    26    27    1
     2    27    25    1
     3    25    16    1
     4    16    17   ar
     5    17    18   ar
     6     1    18    1
     7     1     2    1
     8     2     3   ar
     9     3     4   ar
    10     4     5   ar
    11     5     6   ar
    12     6    12    1
    13    12    13    3
    14     6     7   ar
    15     7     8   ar
    16     8     9   ar
    17     9    10   ar
    18    10    11   ar
    19    11    14    1
    20    14    15    1
    21     1    28    1
    22    28    29    1
    23    28    41    1
    24    41    42    1
    25    42    43    1
    26    43    44    1
    27    43    45    1
    28    28    31    1
    29    31    32   ar
    30    32    33   ar
    31    33    37    1
    32    37    38    1
    33    33    34   ar
    34    34    35   ar
    35    35    39    1
    36    39    40    1
    37    35    36   ar
    38    18    19   ar
    39    19    20   ar
    40    20    22    1
    41    22    23    1
    42    22    24    1
    43    20    21   ar
    44    21    16   ar
    45    11     2   ar
    46    36    31   ar
    47     9     4   ar
    48    29    30    1
@<TRIPOS>MOLECULE
*****
 45 48 0 0 0
SMALL
GASTEIGER

@<TRIPOS>ATOM
      1 C         139.7921  142.4969  160.1560 C.3     1  UNL1        0.0779
      2 C         139.8414  141.2279  160.9544 C.ar    1  UNL1        0.0373
      3 C         139.1868  141.1642  162.3026 C.ar    1  UNL1        0.0023
      4 C         139.2361  139.8954  163.1010 C.ar    1  UNL1        0.0183
      5 C         138.5815  139.8316  164.4491 C.ar    1  UNL1        0.0118
      6 C         138.6308  138.5627  165.2476 C.ar    1  UNL1        0.0685
      7 C         139.3347  137.3576  164.6979 C.ar    1  UNL1        0.0118
      8 C         139.9893  137.4213  163.3498 C.ar    1  UNL1        0.0199
      9 C         139.9400  138.6901  162.5513 C.ar    1  UNL1        0.0844
     10 N         140.5946  138.7539  161.2032 N.ar    1  UNL1       -0.2119
     11 C         140.5453  140.0228  160.4048 C.ar    1  UNL1        0.2211
     12 C         137.9762  138.4990  166.5957 C.1     1  UNL1        0.1004
     13 N         137.3216  138.4353  167.9439 N.1     1  UNL1       -0.1908
     14 O         141.1999  140.0865  159.0566 O.3     1  UNL1       -0.4563
     15 C         142.4241  139.2659  158.7778 C.3     1  UNL1        0.2542
     16 C         137.3800  141.5160  157.1611 C.ar    1  UNL1        0.2257
     17 C         138.0592  141.4972  158.4983 C.ar    1  UNL1        0.0539
     18 C         139.1129  142.5156  158.8187 C.ar    1  UNL1       -0.0083
     19 C         139.4873  143.5528  157.8019 C.ar    1  UNL1        0.0307
     20 C         138.8081  143.5716  156.4646 C.ar    1  UNL1        0.1346
     21 N         137.7545  142.5532  156.1441 N.ar    1  UNL1       -0.1967
     22 N         139.1826  144.6088  155.4477 N.pl3   1  UNL1       -0.2897
     23 C         140.3701  144.3918  154.5575 C.3     1  UNL1        0.1136
     24 C         138.3695  145.8629  155.3211 C.3     1  UNL1        0.1136
     25 O         136.3264  140.4976  156.8407 O.3     1  UNL1       -0.4602
     26 C         134.1796  139.8357  155.5355 C.3     1  UNL1        0.0512
     27 C         135.3531  140.7501  155.7275 C.3     1  UNL1        0.2072
     28 C         140.4220  143.7470  160.6949 C.3     1  UNL1        0.1161
     29 O         139.0607  144.3307  160.9319 O.3     1  UNL1       -0.3820
     30 H         139.1514  145.2236  161.3000 H       1  UNL1        0.2107
     31 C         141.7833  143.1632  160.4578 C.ar    1  UNL1        0.0117
     32 C         142.4953  142.4462  161.5663 C.ar    1  UNL1        0.0559
     33 C         143.8565  141.8624  161.3292 C.ar    1  UNL1        0.2272
     34 N         144.5058  141.9958  159.9837 N.ar    1  UNL1       -0.1767
     35 C         143.7938  142.7128  158.8752 C.ar    1  UNL1        0.2272
     36 C         142.4326  143.2966  159.1122 C.ar    1  UNL1        0.0559
     37 O         144.5685  141.1453  162.4378 O.3     1  UNL1       -0.4561
     38 C         145.6472  141.8437  163.2116 C.3     1  UNL1        0.2542
     39 O         144.4431  142.8462  157.5295 O.3     1  UNL1       -0.4561
     40 C         145.4408  141.8231  157.0735 C.3     1  UNL1        0.2542
     41 C         141.0519  144.9971  161.2337 C.3     1  UNL1        0.0491
     42 C         140.4762  145.6637  162.4479 C.3     1  UNL1        0.0750
     43 N         140.3061  144.8874  163.7201 N.3     1  UNL1       -0.2702
     44 C         141.4939  144.2401  164.3682 C.3     1  UNL1        0.0897
     45 C         138.9481  144.7583  164.3441 C.3     1  UNL1        0.0897
@<TRIPOS>BOND
     1    26    27    1
     2    27    25    1
     3    25    16    1
     4    16    17   ar
     5    17    18   ar
     6     1    18    1
     7     1     2    1
     8     2     3   ar
     9     3     4   ar
    10     4     5   ar
    11     5     6   ar
    12     6    12    1
    13    12    13    3
    14     6     7   ar
    15     7     8   ar
    16     8     9   ar
    17     9    10   ar
    18    10    11   ar
    19    11    14    1
    20    14    15    1
    21     1    28    1
    22    28    29    1
    23    28    41    1
    24    41    42    1
    25    42    43    1
    26    43    44    1
    27    43    45    1
    28    28    31    1
    29    31    32   ar
    30    32    33   ar
    31    33    37    1
    32    37    38    1
    33    33    34   ar
    34    34    35   ar
    35    35    39    1
    36    39    40    1
    37    35    36   ar
    38    18    19   ar
    39    19    20   ar
    40    20    22    1
    41    22    23    1
    42    22    24    1
    43    20    21   ar
    44    21    16   ar
    45    11     2   ar
    46    36    31   ar
    47     9     4   ar
    48    29    30    1
@<TRIPOS>MOLECULE
*****
 45 48 0 0 0
SMALL
GASTEIGER

@<TRIPOS>ATOM
      1 C         141.9399  140.8711  162.2792 C.3     1  UNL1        0.0779
      2 C         141.4657  140.2056  161.0212 C.ar    1  UNL1        0.0373
      3 C         142.3171  139.1646  160.3567 C.ar    1  UNL1        0.0023
      4 C         141.8430  138.4991  159.0988 C.ar    1  UNL1        0.0183
      5 C         142.6944  137.4581  158.4344 C.ar    1  UNL1        0.0118
      6 C         142.2203  136.7926  157.1764 C.ar    1  UNL1        0.0685
      7 C         140.8949  137.1681  156.5830 C.ar    1  UNL1        0.0118
      8 C         140.0435  138.2091  157.2474 C.ar    1  UNL1        0.0199
      9 C         140.5176  138.8746  158.5053 C.ar    1  UNL1        0.0844
     10 N         139.6662  139.9156  159.1698 N.ar    1  UNL1       -0.2119
     11 C         140.1403  140.5811  160.4278 C.ar    1  UNL1        0.2211
     12 C         143.0716  135.7516  156.5119 C.1     1  UNL1        0.1004
     13 N         143.9230  134.7106  155.8475 N.1     1  UNL1       -0.1908
     14 O         139.2890  141.6221  161.0922 O.3     1  UNL1       -0.4563
     15 C         138.5211  142.6059  160.2601 C.3     1  UNL1        0.2542
     16 C         139.9007  142.3884  165.3270 C.ar    1  UNL1        0.2257
     17 C         140.8130  142.2910  164.1404 C.ar    1  UNL1        0.0539
     18 C         141.0276  140.9685  163.4658 C.ar    1  UNL1       -0.0083
     19 C         140.3298  139.7434  163.9779 C.ar    1  UNL1        0.0307
     20 C         139.4174  139.8408  165.1646 C.ar    1  UNL1        0.1346
     21 N         139.2029  141.1633  165.8391 N.ar    1  UNL1       -0.1967
     22 N         138.7196  138.6158  165.6766 N.pl3   1  UNL1       -0.2897
     23 C         138.9155  137.2979  164.9876 C.3     1  UNL1        0.1136
     24 C         137.8259  138.7085  166.8778 C.3     1  UNL1        0.1136
     25 O         139.6862  143.7109  166.0016 O.3     1  UNL1       -0.4602
     26 C         137.7084  144.2835  164.4172 C.3     1  UNL1        0.0512
     27 C         138.7599  144.7217  165.3930 C.3     1  UNL1        0.2072
     28 C         143.3263  141.4391  162.3504 C.3     1  UNL1        0.1161
     29 O         143.6623  140.4806  163.4542 O.3     1  UNL1       -0.3820
     30 H         144.5761  140.6287  163.7441 H       1  UNL1        0.2107
     31 C         142.9903  142.3976  161.2466 C.ar    1  UNL1        0.0117
     32 C         143.6193  142.2348  159.8946 C.ar    1  UNL1        0.0559
     33 C         143.2833  143.1932  158.7908 C.ar    1  UNL1        0.2272
     34 N         142.3184  144.3145  159.0389 N.ar    1  UNL1       -0.1767
     35 C         141.6894  144.4773  160.3908 C.ar    1  UNL1        0.2272
     36 C         142.0254  143.5188  161.4947 C.ar    1  UNL1        0.0559
     37 O         143.9123  143.0304  157.4387 O.3     1  UNL1       -0.4561
     38 C         145.1623  142.2152  157.2863 C.3     1  UNL1        0.2542
     39 O         140.7244  145.5986  160.6390 O.3     1  UNL1       -0.4561
     40 C         140.1529  145.8065  162.0102 C.3     1  UNL1        0.2542
     41 C         144.7128  142.0071  162.4216 C.3     1  UNL1        0.0491
     42 C         145.2430  142.5302  163.7237 C.3     1  UNL1        0.0750
     43 N         144.3578  143.3425  164.6219 N.3     1  UNL1       -0.2702
     44 C         143.9025  142.7790  165.9353 C.3     1  UNL1        0.0897
     45 C         143.9280  144.7183  164.2066 C.3     1  UNL1        0.0897
@<TRIPOS>BOND
     1    26    27    1
     2    27    25    1
     3    25    16    1
     4    16    17   ar
     5    17    18   ar
     6     1    18    1
     7     1     2    1
     8     2     3   ar
     9     3     4   ar
    10     4     5   ar
    11     5     6   ar
    12     6    12    1
    13    12    13    3
    14     6     7   ar
    15     7     8   ar
    16     8     9   ar
    17     9    10   ar
    18    10    11   ar
    19    11    14    1
    20    14    15    1
    21     1    28    1
    22    28    29    1
    23    28    41    1
    24    41    42    1
    25    42    43    1
    26    43    44    1
    27    43    45    1
    28    28    31    1
    29    31    32   ar
    30    32    33   ar
    31    33    37    1
    32    37    38    1
    33    33    34   ar
    34    34    35   ar
    35    35    39    1
    36    39    40    1
    37    35    36   ar
    38    18    19   ar
    39    19    20   ar
    40    20    22    1
    41    22    23    1
    42    22    24    1
    43    20    21   ar
    44    21    16   ar
    45    11     2   ar
    46    36    31   ar
    47     9     4   ar
    48    29    30    1
