@<TRIPOS>MOLECULE
*****
 34 38 0 0 0
SMALL
GASTEIGER

@<TRIPOS>ATOM
      1 N         143.5546  138.0121  161.8286 N.pl3   1  UNL1       -0.2776
      2 H         144.2558  137.3618  162.0623 H       1  UNL1        0.1552
      3 C         143.4121  138.4849  160.4123 C.ar    1  UNL1        0.2209
      4 N         144.0047  139.7989  159.9970 N.ar    1  UNL1       -0.2111
      5 C         143.8622  140.2717  158.5807 C.ar    1  UNL1        0.1147
      6 C         143.1271  139.4306  157.5795 C.ar    1  UNL1        0.0960
      7 CL        142.9847  139.9035  156.1632 Cl      1  UNL1       -0.0790
      8 C         142.5345  138.1166  157.9948 C.ar    1  UNL1        0.1138
      9 N         142.6770  137.6439  159.4111 N.ar    1  UNL1       -0.2111
     10 C         141.7995  137.2755  156.9937 C.ar    1  UNL1        0.1031
     11 C         140.4534  137.5794  156.4057 C.ar    1  UNL1        0.1196
     12 N         140.1034  136.4746  155.4534 N.ar    1  UNL1       -0.2248
     13 C         141.2332  135.4880  155.4528 C.ar    1  UNL1        0.1479
     14 C         141.4430  134.2027  154.7084 C.ar    1  UNL1        0.0374
     15 C         142.7009  133.4125  154.9159 C.ar    1  UNL1        0.0046
     16 C         143.7492  133.9074  155.8678 C.ar    1  UNL1        0.0191
     17 C         143.5394  135.1927  156.6122 C.ar    1  UNL1        0.0815
     18 N         142.2815  135.9829  156.4047 N.ar    1  UNL1       -0.2874
     19 C         141.1559  138.2605  162.9817 C.ar    1  UNL1        0.2571
     20 N         140.6298  138.9722  164.1928 N.ar    1  UNL1       -0.1302
     21 N         141.7774  139.6815  164.8486 N.ar    1  UNL1       -0.2471
     22 C         143.0127  139.4082  164.0428 C.ar    1  UNL1        0.1145
     23 C         142.6286  138.5300  162.8890 C.ar    1  UNL1        0.1248
     24 C         141.7027  140.5173  166.0919 C.3     1  UNL1        0.1088
     25 C         140.6764  141.6055  166.2035 C.3     1  UNL1        0.0459
     26 C         140.6017  142.4414  167.4469 C.3     1  UNL1        0.0954
     27 N         141.5535  142.1890  168.5785 N.am    1  UNL1       -0.2794
     28 C         141.4788  143.0249  169.8218 C.2     1  UNL1        0.2261
     29 C         140.4524  144.1131  169.9334 C.3     1  UNL1        0.0948
     30 O         142.4305  142.7725  170.9535 O.2     1  UNL1       -0.2749
     31 C         142.5798  141.1008  168.4669 C.3     1  UNL1        0.0954
     32 C         142.6544  140.2650  167.2235 C.3     1  UNL1        0.0459
     33 C         139.3869  138.0829  161.0873 C.3     1  UNL1        0.2543
     34 O         140.3507  137.4259  162.0303 O.3     1  UNL1       -0.4543
@<TRIPOS>BOND
     1    33    34    1
     2    34    19    1
     3    19    20   ar
     4    20    21   ar
     5    21    24    1
     6    24    25    1
     7    25    26    1
     8    26    27    1
     9    27    28   am
    10    28    29    1
    11    28    30    2
    12    27    31    1
    13    31    32    1
    14    21    22   ar
    15    22    23   ar
    16    23     1    1
    17     1     3    1
    18     3     4   ar
    19     4     5   ar
    20     5     6   ar
    21     6     7    1
    22     6     8   ar
    23     8    10    1
    24    10    11   ar
    25    11    12   ar
    26    12    13   ar
    27    13    14   ar
    28    14    15   ar
    29    15    16   ar
    30    16    17   ar
    31    17    18   ar
    32     8     9   ar
    33    23    19   ar
    34     9     3   ar
    35    32    24    1
    36    18    10   ar
    37    18    13   ar
    38     1     2    1
@<TRIPOS>MOLECULE
*****
 34 38 0 0 0
SMALL
GASTEIGER

@<TRIPOS>ATOM
      1 N         143.4522  143.8588  161.4084 N.pl3   1  UNL1       -0.2776
      2 H         144.1450  144.5355  161.2316 H       1  UNL1        0.1552
      3 C         143.7727  142.6596  162.2505 C.ar    1  UNL1        0.2209
      4 N         145.0917  142.5718  162.9593 N.ar    1  UNL1       -0.2111
      5 C         145.4122  141.3726  163.8014 C.ar    1  UNL1        0.1147
      6 C         144.4137  140.2612  163.9347 C.ar    1  UNL1        0.0960
      7 CL        144.7342  139.0620  164.7768 Cl      1  UNL1       -0.0790
      8 C         143.0946  140.3490  163.2258 C.ar    1  UNL1        0.1138
      9 N         142.7742  141.5482  162.3837 N.ar    1  UNL1       -0.2111
     10 C         142.0961  139.2376  163.3591 C.ar    1  UNL1        0.1031
     11 C         142.0881  137.9605  162.5723 C.ar    1  UNL1        0.1196
     12 N         140.9173  137.1418  163.0295 N.ar    1  UNL1       -0.2248
     13 C         140.2018  137.9129  164.0988 C.ar    1  UNL1        0.1479
     14 C         138.9810  137.6029  164.9133 C.ar    1  UNL1        0.0374
     15 C         138.4886  138.5882  165.9316 C.ar    1  UNL1        0.0046
     16 C         139.2171  139.8835  166.1353 C.ar    1  UNL1        0.0191
     17 C         140.4380  140.1935  165.3208 C.ar    1  UNL1        0.0815
     18 N         140.9303  139.2082  164.3025 N.ar    1  UNL1       -0.2874
     19 C         140.9226  144.7177  161.5006 C.ar    1  UNL1        0.2571
     20 N         139.7456  144.6516  160.5732 N.ar    1  UNL1       -0.1302
     21 N         140.1716  143.9200  159.3349 N.ar    1  UNL1       -0.2471
     22 C         141.6119  143.5339  159.4970 C.ar    1  UNL1        0.1145
     23 C         142.0762  144.0270  160.8355 C.ar    1  UNL1        0.1248
     24 C         139.3088  143.6260  158.1436 C.3     1  UNL1        0.1088
     25 C         139.5389  144.3546  156.8528 C.3     1  UNL1        0.0459
     26 C         138.6760  144.0607  155.6615 C.3     1  UNL1        0.0954
     27 N         137.5831  143.0381  155.7612 N.am    1  UNL1       -0.2794
     28 C         136.7202  142.7442  154.5698 C.2     1  UNL1        0.2261
     29 C         136.9503  143.4728  153.2790 C.3     1  UNL1        0.0948
     30 O         135.6273  141.7216  154.6694 O.2     1  UNL1       -0.2749
     31 C         137.3530  142.3095  157.0519 C.3     1  UNL1        0.0954
     32 C         138.2159  142.6035  158.2432 C.3     1  UNL1        0.0459
     33 C         141.0234  144.5115  164.0885 C.3     1  UNL1        0.2543
     34 O         140.9427  145.3615  162.8553 O.3     1  UNL1       -0.4543
@<TRIPOS>BOND
     1    33    34    1
     2    34    19    1
     3    19    20   ar
     4    20    21   ar
     5    21    24    1
     6    24    25    1
     7    25    26    1
     8    26    27    1
     9    27    28   am
    10    28    29    1
    11    28    30    2
    12    27    31    1
    13    31    32    1
    14    21    22   ar
    15    22    23   ar
    16    23     1    1
    17     1     3    1
    18     3     4   ar
    19     4     5   ar
    20     5     6   ar
    21     6     7    1
    22     6     8   ar
    23     8    10    1
    24    10    11   ar
    25    11    12   ar
    26    12    13   ar
    27    13    14   ar
    28    14    15   ar
    29    15    16   ar
    30    16    17   ar
    31    17    18   ar
    32     8     9   ar
    33    23    19   ar
    34     9     3   ar
    35    32    24    1
    36    18    10   ar
    37    18    13   ar
    38     1     2    1
@<TRIPOS>MOLECULE
*****
 34 38 0 0 0
SMALL
GASTEIGER

@<TRIPOS>ATOM
      1 N         143.4183  138.4385  162.0607 N.pl3   1  UNL1       -0.2776
      2 H         144.3074  138.4468  162.4834 H       1  UNL1        0.1552
      3 C         142.1832  138.4316  162.9118 C.ar    1  UNL1        0.2209
      4 N         141.9439  137.3087  163.8771 N.ar    1  UNL1       -0.2111
      5 C         140.7088  137.3018  164.7283 C.ar    1  UNL1        0.1147
      6 C         139.7131  138.4179  164.6142 C.ar    1  UNL1        0.0960
      7 CL        138.4780  138.4110  165.4654 Cl      1  UNL1       -0.0790
      8 C         139.9525  139.5409  163.6489 C.ar    1  UNL1        0.1138
      9 N         141.1875  139.5477  162.7978 N.ar    1  UNL1       -0.2111
     10 C         138.9568  140.6569  163.5349 C.ar    1  UNL1        0.1031
     11 C         137.7254  140.6557  162.6783 C.ar    1  UNL1        0.1196
     12 N         137.0252  141.9682  162.8714 N.ar    1  UNL1       -0.2248
     13 C         137.8239  142.7804  163.8473 C.ar    1  UNL1        0.1479
     14 C         137.6183  144.1533  164.4155 C.ar    1  UNL1        0.0374
     15 C         138.6066  144.7158  165.3938 C.ar    1  UNL1        0.0046
     16 C         139.8003  143.9054  165.8039 C.ar    1  UNL1        0.0191
     17 C         140.0059  142.5325  165.2356 C.ar    1  UNL1        0.0815
     18 N         139.0177  141.9700  164.2573 N.ar    1  UNL1       -0.2874
     19 C         143.6103  139.5806  159.6516 C.ar    1  UNL1        0.2571
     20 N         143.3509  139.1353  158.2429 N.ar    1  UNL1       -0.1302
     21 N         142.8791  137.7120  158.2861 N.ar    1  UNL1       -0.2471
     22 C         142.8469  137.2777  159.7215 C.ar    1  UNL1        0.1145
     23 C         143.2988  138.4326  160.5655 C.ar    1  UNL1        0.1248
     24 C         142.5051  136.8707  157.1019 C.3     1  UNL1        0.1088
     25 C         143.1160  135.5124  156.9240 C.3     1  UNL1        0.0459
     26 C         142.7421  134.6711  155.7397 C.3     1  UNL1        0.0954
     27 N         141.7572  135.1882  154.7335 N.am    1  UNL1       -0.2794
     28 C         141.3832  134.3469  153.5492 C.2     1  UNL1        0.2261
     29 C         141.9942  132.9885  153.3713 C.3     1  UNL1        0.0948
     30 O         140.3983  134.8640  152.5429 O.2     1  UNL1       -0.2749
     31 C         141.1462  136.5466  154.9114 C.3     1  UNL1        0.0954
     32 C         141.5203  137.3878  156.0957 C.3     1  UNL1        0.0459
     33 C         143.1226  142.0669  160.2265 C.3     1  UNL1        0.2543
     34 O         144.0959  140.9360  160.0725 O.3     1  UNL1       -0.4543
@<TRIPOS>BOND
     1    33    34    1
     2    34    19    1
     3    19    20   ar
     4    20    21   ar
     5    21    24    1
     6    24    25    1
     7    25    26    1
     8    26    27    1
     9    27    28   am
    10    28    29    1
    11    28    30    2
    12    27    31    1
    13    31    32    1
    14    21    22   ar
    15    22    23   ar
    16    23     1    1
    17     1     3    1
    18     3     4   ar
    19     4     5   ar
    20     5     6   ar
    21     6     7    1
    22     6     8   ar
    23     8    10    1
    24    10    11   ar
    25    11    12   ar
    26    12    13   ar
    27    13    14   ar
    28    14    15   ar
    29    15    16   ar
    30    16    17   ar
    31    17    18   ar
    32     8     9   ar
    33    23    19   ar
    34     9     3   ar
    35    32    24    1
    36    18    10   ar
    37    18    13   ar
    38     1     2    1
@<TRIPOS>MOLECULE
*****
 34 38 0 0 0
SMALL
GASTEIGER

@<TRIPOS>ATOM
      1 N         141.1357  145.4688  161.9680 N.pl3   1  UNL1       -0.2776
      2 H         141.2813  146.4202  162.1753 H       1  UNL1        0.1552
      3 C         141.3982  144.9540  160.5838 C.ar    1  UNL1        0.2209
      4 N         142.5653  144.0465  160.3300 N.ar    1  UNL1       -0.2111
      5 C         142.8278  143.5317  158.9458 C.ar    1  UNL1        0.1147
      6 C         141.9234  143.9245  157.8154 C.ar    1  UNL1        0.0960
      7 CL        142.1859  143.4097  156.4312 Cl      1  UNL1       -0.0790
      8 C         140.7563  144.8320  158.0693 C.ar    1  UNL1        0.1138
      9 N         140.4938  145.3468  159.4535 N.ar    1  UNL1       -0.2111
     10 C         139.8518  145.2247  156.9389 C.ar    1  UNL1        0.1031
     11 C         139.8374  146.5529  156.2419 C.ar    1  UNL1        0.1196
     12 N         138.7797  146.5073  155.1793 N.ar    1  UNL1       -0.2248
     13 C         138.1404  145.1509  155.2196 C.ar    1  UNL1        0.1479
     14 C         137.0405  144.5352  154.4066 C.ar    1  UNL1        0.0374
     15 C         136.6031  143.1269  154.6810 C.ar    1  UNL1        0.0046
     16 C         137.2657  142.3342  155.7685 C.ar    1  UNL1        0.0191
     17 C         138.3656  142.9499  156.5816 C.ar    1  UNL1        0.0815
     18 N         138.8030  144.3583  156.3071 N.ar    1  UNL1       -0.2874
     19 C         139.3870  143.7277  162.9955 C.ar    1  UNL1        0.2571
     20 N         139.3002  142.9370  164.2672 N.ar    1  UNL1       -0.1302
     21 N         140.5107  143.2548  165.0942 N.ar    1  UNL1       -0.2471
     22 C         141.3456  144.2419  164.3336 C.ar    1  UNL1        0.1145
     23 C         140.6512  144.5342  163.0365 C.ar    1  UNL1        0.1248
     24 C         140.8302  142.6855  166.4447 C.3     1  UNL1        0.1088
     25 C         141.9367  141.6838  166.5936 C.3     1  UNL1        0.0459
     26 C         142.2562  141.1144  167.9442 C.3     1  UNL1        0.0954
     27 N         141.4691  141.5468  169.1456 N.am    1  UNL1       -0.2794
     28 C         141.7886  140.9774  170.4961 C.2     1  UNL1        0.2261
     29 C         142.8951  139.9757  170.6451 C.3     1  UNL1        0.0948
     30 O         141.0015  141.4098  171.6977 O.2     1  UNL1       -0.2749
     31 C         140.3625  142.5485  168.9967 C.3     1  UNL1        0.0954
     32 C         140.0431  143.1178  167.6461 C.3     1  UNL1        0.0459
     33 C         138.4087  142.6100  160.8640 C.3     1  UNL1        0.2543
     34 O         138.3856  143.7143  161.8789 O.3     1  UNL1       -0.4543
@<TRIPOS>BOND
     1    33    34    1
     2    34    19    1
     3    19    20   ar
     4    20    21   ar
     5    21    24    1
     6    24    25    1
     7    25    26    1
     8    26    27    1
     9    27    28   am
    10    28    29    1
    11    28    30    2
    12    27    31    1
    13    31    32    1
    14    21    22   ar
    15    22    23   ar
    16    23     1    1
    17     1     3    1
    18     3     4   ar
    19     4     5   ar
    20     5     6   ar
    21     6     7    1
    22     6     8   ar
    23     8    10    1
    24    10    11   ar
    25    11    12   ar
    26    12    13   ar
    27    13    14   ar
    28    14    15   ar
    29    15    16   ar
    30    16    17   ar
    31    17    18   ar
    32     8     9   ar
    33    23    19   ar
    34     9     3   ar
    35    32    24    1
    36    18    10   ar
    37    18    13   ar
    38     1     2    1
@<TRIPOS>MOLECULE
*****
 34 38 0 0 0
SMALL
GASTEIGER

@<TRIPOS>ATOM
      1 N         139.4053  138.0269  160.3171 N.pl3   1  UNL1       -0.2776
      2 H         138.9994  137.1777  160.0282 H       1  UNL1        0.1552
      3 C         139.4206  139.2049  159.3886 C.ar    1  UNL1        0.2209
      4 N         138.9890  139.0408  157.9615 N.ar    1  UNL1       -0.2111
      5 C         139.0043  140.2188  157.0331 C.ar    1  UNL1        0.1147
      6 C         139.4514  141.5610  157.5318 C.ar    1  UNL1        0.0960
      7 CL        139.4667  142.7390  156.6034 Cl      1  UNL1       -0.0790
      8 C         139.8831  141.7251  158.9590 C.ar    1  UNL1        0.1138
      9 N         139.8677  140.5471  159.8873 N.ar    1  UNL1       -0.2111
     10 C         140.3301  143.0673  159.4577 C.ar    1  UNL1        0.1031
     11 C         141.3824  143.9344  158.8325 C.ar    1  UNL1        0.1196
     12 N         141.5060  145.1811  159.6575 N.ar    1  UNL1       -0.2248
     13 C         140.5301  145.0844  160.7925 C.ar    1  UNL1        0.1479
     14 C         140.2093  146.0172  161.9226 C.ar    1  UNL1        0.0374
     15 C         139.1617  145.6436  162.9291 C.ar    1  UNL1        0.0046
     16 C         138.4349  144.3372  162.8056 C.ar    1  UNL1        0.0191
     17 C         138.7557  143.4045  161.6756 C.ar    1  UNL1        0.0815
     18 N         139.8033  143.7781  160.6690 N.ar    1  UNL1       -0.2874
     19 C         141.4091  137.7649  162.0666 C.ar    1  UNL1        0.2571
     20 N         141.5830  138.0451  163.5299 N.ar    1  UNL1       -0.1302
     21 N         140.2896  138.5960  164.0533 N.ar    1  UNL1       -0.2471
     22 C         139.3164  138.6562  162.9135 C.ar    1  UNL1        0.1145
     23 C         140.0083  138.1426  161.6856 C.ar    1  UNL1        0.1248
     24 C         140.0173  139.0133  165.4681 C.3     1  UNL1        0.1088
     25 C         141.0871  139.6959  166.2678 C.3     1  UNL1        0.0459
     26 C         140.8148  140.1132  167.6827 C.3     1  UNL1        0.0954
     27 N         139.4726  139.8480  168.2977 N.am    1  UNL1       -0.2794
     28 C         139.2003  140.2654  169.7125 C.2     1  UNL1        0.2261
     29 C         140.2702  140.9479  170.5123 C.3     1  UNL1        0.0948
     30 O         137.8582  140.0002  170.3276 O.2     1  UNL1       -0.2749
     31 C         138.4028  139.1654  167.4980 C.3     1  UNL1        0.0954
     32 C         138.6752  138.7481  166.0831 C.3     1  UNL1        0.0459
     33 C         143.7588  137.9215  160.9693 C.3     1  UNL1        0.2543
     34 O         142.4528  137.2053  161.1460 O.3     1  UNL1       -0.4543
@<TRIPOS>BOND
     1    33    34    1
     2    34    19    1
     3    19    20   ar
     4    20    21   ar
     5    21    24    1
     6    24    25    1
     7    25    26    1
     8    26    27    1
     9    27    28   am
    10    28    29    1
    11    28    30    2
    12    27    31    1
    13    31    32    1
    14    21    22   ar
    15    22    23   ar
    16    23     1    1
    17     1     3    1
    18     3     4   ar
    19     4     5   ar
    20     5     6   ar
    21     6     7    1
    22     6     8   ar
    23     8    10    1
    24    10    11   ar
    25    11    12   ar
    26    12    13   ar
    27    13    14   ar
    28    14    15   ar
    29    15    16   ar
    30    16    17   ar
    31    17    18   ar
    32     8     9   ar
    33    23    19   ar
    34     9     3   ar
    35    32    24    1
    36    18    10   ar
    37    18    13   ar
    38     1     2    1
@<TRIPOS>MOLECULE
*****
 34 38 0 0 0
SMALL
GASTEIGER

@<TRIPOS>ATOM
      1 N         141.7491  137.2631  162.5106 N.pl3   1  UNL1       -0.2776
      2 H         141.9964  136.3136  162.5920 H       1  UNL1        0.1552
      3 C         142.0576  138.0130  161.2487 C.ar    1  UNL1        0.2209
      4 N         143.3848  138.6926  161.0855 N.ar    1  UNL1       -0.2111
      5 C         143.6932  139.4425  159.8235 C.ar    1  UNL1        0.1147
      6 C         142.6745  139.5127  158.7248 C.ar    1  UNL1        0.0960
      7 CL        142.9830  140.2626  157.4628 Cl      1  UNL1       -0.0790
      8 C         141.3472  138.8330  158.8880 C.ar    1  UNL1        0.1138
      9 N         141.0389  138.0832  160.1499 N.ar    1  UNL1       -0.2111
     10 C         140.3285  138.9032  157.7892 C.ar    1  UNL1        0.1031
     11 C         139.1856  139.8712  157.7071 C.ar    1  UNL1        0.1196
     12 N         138.4246  139.5840  156.4468 N.ar    1  UNL1       -0.2248
     13 C         139.0972  138.4385  155.7500 C.ar    1  UNL1        0.1479
     14 C         138.7902  137.7243  154.4672 C.ar    1  UNL1        0.0374
     15 C         139.6599  136.5892  154.0141 C.ar    1  UNL1        0.0046
     16 C         140.8366  136.1684  154.8437 C.ar    1  UNL1        0.0191
     17 C         141.1436  136.8827  156.1265 C.ar    1  UNL1        0.0815
     18 N         140.2739  138.0178  156.5796 N.ar    1  UNL1       -0.2874
     19 C         139.5816  138.0639  163.8544 C.ar    1  UNL1        0.2571
     20 N         139.3421  138.8431  165.1136 N.ar    1  UNL1       -0.1302
     21 N         140.6763  139.2205  165.6860 N.ar    1  UNL1       -0.2471
     22 C         141.7404  138.6746  164.7807 C.ar    1  UNL1        0.1145
     23 C         141.0639  137.9597  163.6486 C.ar    1  UNL1        0.1248
     24 C         140.9061  140.0059  166.9431 C.3     1  UNL1        0.1088
     25 C         142.1032  140.9023  167.0592 C.3     1  UNL1        0.0459
     26 C         142.3330  141.6878  168.3163 C.3     1  UNL1        0.0954
     27 N         141.3656  141.5767  169.4573 N.am    1  UNL1       -0.2794
     28 C         141.5954  142.3622  170.7145 C.2     1  UNL1        0.2261
     29 C         142.7925  143.2586  170.8305 C.3     1  UNL1        0.0948
     30 O         140.6281  142.2512  171.8555 O.2     1  UNL1       -0.2749
     31 C         140.1685  140.6803  169.3413 C.3     1  UNL1        0.0954
     32 C         139.9388  139.8949  168.0841 C.3     1  UNL1        0.0459
     33 C         137.9140  138.3360  161.8809 C.3     1  UNL1        0.2543
     34 O         138.5246  137.4897  162.9583 O.3     1  UNL1       -0.4543
@<TRIPOS>BOND
     1    33    34    1
     2    34    19    1
     3    19    20   ar
     4    20    21   ar
     5    21    24    1
     6    24    25    1
     7    25    26    1
     8    26    27    1
     9    27    28   am
    10    28    29    1
    11    28    30    2
    12    27    31    1
    13    31    32    1
    14    21    22   ar
    15    22    23   ar
    16    23     1    1
    17     1     3    1
    18     3     4   ar
    19     4     5   ar
    20     5     6   ar
    21     6     7    1
    22     6     8   ar
    23     8    10    1
    24    10    11   ar
    25    11    12   ar
    26    12    13   ar
    27    13    14   ar
    28    14    15   ar
    29    15    16   ar
    30    16    17   ar
    31    17    18   ar
    32     8     9   ar
    33    23    19   ar
    34     9     3   ar
    35    32    24    1
    36    18    10   ar
    37    18    13   ar
    38     1     2    1
@<TRIPOS>MOLECULE
*****
 34 38 0 0 0
SMALL
GASTEIGER

@<TRIPOS>ATOM
      1 N         142.1107  138.9968  158.7402 N.pl3   1  UNL1       -0.2776
      2 H         142.6943  139.7335  158.4473 H       1  UNL1        0.1552
      3 C         141.6423  138.9317  160.1637 C.ar    1  UNL1        0.2209
      4 N         142.2216  137.9111  161.0979 N.ar    1  UNL1       -0.2111
      5 C         141.7532  137.8460  162.5214 C.ar    1  UNL1        0.1147
      6 C         140.7055  138.8015  163.0107 C.ar    1  UNL1        0.0960
      7 CL        140.2371  138.7364  164.4342 Cl      1  UNL1       -0.0790
      8 C         140.1262  139.8222  162.0764 C.ar    1  UNL1        0.1138
      9 N         140.5946  139.8872  160.6530 N.ar    1  UNL1       -0.2111
     10 C         139.0785  140.7777  162.5657 C.ar    1  UNL1        0.1031
     11 C         137.6006  140.6572  162.3391 C.ar    1  UNL1        0.1196
     12 N         136.9334  141.8264  163.0008 N.ar    1  UNL1       -0.2248
     13 C         137.9990  142.6694  163.6364 C.ar    1  UNL1        0.1479
     14 C         137.9334  143.9435  164.4252 C.ar    1  UNL1        0.0374
     15 C         139.1935  144.5695  164.9451 C.ar    1  UNL1        0.0046
     16 C         140.5192  143.9213  164.6762 C.ar    1  UNL1        0.0191
     17 C         140.5849  142.6472  163.8874 C.ar    1  UNL1        0.0815
     18 N         139.3247  142.0213  163.3674 N.ar    1  UNL1       -0.2874
     19 C         140.3434  137.8270  157.1113 C.ar    1  UNL1        0.2571
     20 N         140.3629  136.6270  156.2115 N.ar    1  UNL1       -0.1302
     21 N         141.7213  135.9979  156.3071 N.ar    1  UNL1       -0.2471
     22 C         142.5413  136.8090  157.2660 C.ar    1  UNL1        0.1145
     23 C         141.6898  137.9395  157.7630 C.ar    1  UNL1        0.1248
     24 C         142.1792  134.7727  155.5727 C.3     1  UNL1        0.1088
     25 C         141.7095  134.5192  154.1709 C.3     1  UNL1        0.0459
     26 C         142.1674  133.2940  153.4365 C.3     1  UNL1        0.0954
     27 N         143.0949  132.3224  154.1040 N.am    1  UNL1       -0.2794
     28 C         143.5528  131.0972  153.3696 C.2     1  UNL1        0.2261
     29 C         143.0832  130.8437  151.9677 C.3     1  UNL1        0.0948
     30 O         144.4804  130.1255  154.0371 O.2     1  UNL1       -0.2749
     31 C         143.5646  132.5759  155.5058 C.3     1  UNL1        0.0954
     32 C         143.1067  133.8011  156.2401 C.3     1  UNL1        0.0459
     33 C         139.1387  140.0751  156.6168 C.3     1  UNL1        0.2543
     34 O         139.1817  138.7521  157.3223 O.3     1  UNL1       -0.4543
@<TRIPOS>BOND
     1    33    34    1
     2    34    19    1
     3    19    20   ar
     4    20    21   ar
     5    21    24    1
     6    24    25    1
     7    25    26    1
     8    26    27    1
     9    27    28   am
    10    28    29    1
    11    28    30    2
    12    27    31    1
    13    31    32    1
    14    21    22   ar
    15    22    23   ar
    16    23     1    1
    17     1     3    1
    18     3     4   ar
    19     4     5   ar
    20     5     6   ar
    21     6     7    1
    22     6     8   ar
    23     8    10    1
    24    10    11   ar
    25    11    12   ar
    26    12    13   ar
    27    13    14   ar
    28    14    15   ar
    29    15    16   ar
    30    16    17   ar
    31    17    18   ar
    32     8     9   ar
    33    23    19   ar
    34     9     3   ar
    35    32    24    1
    36    18    10   ar
    37    18    13   ar
    38     1     2    1
@<TRIPOS>MOLECULE
*****
 34 38 0 0 0
SMALL
GASTEIGER

@<TRIPOS>ATOM
      1 N         143.5327  143.2826  161.5679 N.pl3   1  UNL1       -0.2776
      2 H         144.2312  143.9445  161.3600 H       1  UNL1        0.1552
      3 C         142.3833  143.6588  162.4552 C.ar    1  UNL1        0.2209
      4 N         141.5028  144.8174  162.0913 N.ar    1  UNL1       -0.2111
      5 C         140.3534  145.1936  162.9786 C.ar    1  UNL1        0.1147
      6 C         140.0845  144.4112  164.2299 C.ar    1  UNL1        0.0960
      7 CL        138.9351  144.7874  165.1172 Cl      1  UNL1       -0.0790
      8 C         140.9651  143.2526  164.5938 C.ar    1  UNL1        0.1138
      9 N         142.1144  142.8765  163.7065 N.ar    1  UNL1       -0.2111
     10 C         140.6962  142.4703  165.8451 C.ar    1  UNL1        0.1031
     11 C         141.2841  142.7419  167.1981 C.ar    1  UNL1        0.1196
     12 N         140.7435  141.7185  168.1523 N.ar    1  UNL1       -0.2248
     13 C         139.8215  140.8145  167.3890 C.ar    1  UNL1        0.1479
     14 C         139.0048  139.6282  167.8081 C.ar    1  UNL1        0.0374
     15 C         138.1589  138.9066  166.8013 C.ar    1  UNL1        0.0046
     16 C         138.1296  139.3712  165.3754 C.ar    1  UNL1        0.0191
     17 C         138.9463  140.5575  164.9563 C.ar    1  UNL1        0.0815
     18 N         139.7923  141.2791  165.9630 N.ar    1  UNL1       -0.2874
     19 C         144.1849  140.6932  161.6882 C.ar    1  UNL1        0.2571
     20 N         144.0685  139.5256  160.7537 N.ar    1  UNL1       -0.1302
     21 N         143.4296  140.0088  159.4854 N.ar    1  UNL1       -0.2471
     22 C         143.1512  141.4750  159.6360 C.ar    1  UNL1        0.1145
     23 C         143.6179  141.8980  160.9974 C.ar    1  UNL1        0.1248
     24 C         143.1231  139.1726  158.2784 C.3     1  UNL1        0.1088
     25 C         142.7160  137.7384  158.4434 C.3     1  UNL1        0.0459
     26 C         142.4094  136.9021  157.2364 C.3     1  UNL1        0.0954
     27 N         142.5100  137.5002  155.8645 N.am    1  UNL1       -0.2794
     28 C         142.2034  136.6640  154.6574 C.2     1  UNL1        0.2261
     29 C         141.7963  135.2297  154.8224 C.3     1  UNL1        0.0948
     30 O         142.3040  137.2620  153.2855 O.2     1  UNL1       -0.2749
     31 C         142.9171  138.9345  155.6995 C.3     1  UNL1        0.0954
     32 C         143.2237  139.7706  156.9065 C.3     1  UNL1        0.0459
     33 C         145.8118  141.6609  163.4675 C.3     1  UNL1        0.2543
     34 O         144.7661  140.6615  163.0706 O.3     1  UNL1       -0.4543
@<TRIPOS>BOND
     1    33    34    1
     2    34    19    1
     3    19    20   ar
     4    20    21   ar
     5    21    24    1
     6    24    25    1
     7    25    26    1
     8    26    27    1
     9    27    28   am
    10    28    29    1
    11    28    30    2
    12    27    31    1
    13    31    32    1
    14    21    22   ar
    15    22    23   ar
    16    23     1    1
    17     1     3    1
    18     3     4   ar
    19     4     5   ar
    20     5     6   ar
    21     6     7    1
    22     6     8   ar
    23     8    10    1
    24    10    11   ar
    25    11    12   ar
    26    12    13   ar
    27    13    14   ar
    28    14    15   ar
    29    15    16   ar
    30    16    17   ar
    31    17    18   ar
    32     8     9   ar
    33    23    19   ar
    34     9     3   ar
    35    32    24    1
    36    18    10   ar
    37    18    13   ar
    38     1     2    1
@<TRIPOS>MOLECULE
*****
 34 38 0 0 0
SMALL
GASTEIGER

@<TRIPOS>ATOM
      1 N         141.8644  140.0691  158.4337 N.pl3   1  UNL1       -0.2776
      2 H         141.1254  140.6008  158.0590 H       1  UNL1        0.1552
      3 C         142.4309  140.4159  159.7787 C.ar    1  UNL1        0.2209
      4 N         143.5557  139.6048  160.3505 N.ar    1  UNL1       -0.2111
      5 C         144.1221  139.9515  161.6954 C.ar    1  UNL1        0.1147
      6 C         143.5637  141.1093  162.4686 C.ar    1  UNL1        0.0960
      7 CL        144.1302  141.4560  163.8136 Cl      1  UNL1       -0.0790
      8 C         142.4388  141.9204  161.8968 C.ar    1  UNL1        0.1138
      9 N         141.8725  141.5736  160.5519 N.ar    1  UNL1       -0.2111
     10 C         141.8804  143.0781  162.6700 C.ar    1  UNL1        0.1031
     11 C         142.5863  144.3707  162.9547 C.ar    1  UNL1        0.1196
     12 N         141.6603  145.2380  163.7549 N.ar    1  UNL1       -0.2248
     13 C         140.3822  144.4814  163.9647 C.ar    1  UNL1        0.1479
     14 C         139.1120  144.8356  164.6796 C.ar    1  UNL1        0.0374
     15 C         137.9778  143.8549  164.7241 C.ar    1  UNL1        0.0046
     16 C         138.1139  142.5200  164.0536 C.ar    1  UNL1        0.0191
     17 C         139.3841  142.1658  163.3386 C.ar    1  UNL1        0.0815
     18 N         140.5182  143.1465  163.2942 N.ar    1  UNL1       -0.2874
     19 C         143.5015  138.9869  156.6189 C.ar    1  UNL1        0.2571
     20 N         143.7477  137.5987  156.1066 N.ar    1  UNL1       -0.1302
     21 N         142.8222  136.6664  156.8308 N.ar    1  UNL1       -0.2471
     22 C         142.0041  137.4783  157.7907 C.ar    1  UNL1        0.1145
     23 C         142.4239  138.9125  157.6598 C.ar    1  UNL1        0.1248
     24 C         142.7309  135.1827  156.6303 C.3     1  UNL1        0.1088
     25 C         143.6136  134.2633  157.4211 C.3     1  UNL1        0.0459
     26 C         143.5223  132.7795  157.2206 C.3     1  UNL1        0.0954
     27 N         142.5482  132.2152  156.2292 N.am    1  UNL1       -0.2794
     28 C         142.4569  130.7314  156.0287 C.2     1  UNL1        0.2261
     29 C         143.3397  129.8120  156.8195 C.3     1  UNL1        0.0948
     30 O         141.4829  130.1671  155.0374 O.2     1  UNL1       -0.2749
     31 C         141.6655  133.1346  155.4384 C.3     1  UNL1        0.0954
     32 C         141.7569  134.6184  155.6390 C.3     1  UNL1        0.0459
     33 C         145.0994  140.9728  157.1214 C.3     1  UNL1        0.2543
     34 O         144.2088  140.2309  156.1694 O.3     1  UNL1       -0.4543
@<TRIPOS>BOND
     1    33    34    1
     2    34    19    1
     3    19    20   ar
     4    20    21   ar
     5    21    24    1
     6    24    25    1
     7    25    26    1
     8    26    27    1
     9    27    28   am
    10    28    29    1
    11    28    30    2
    12    27    31    1
    13    31    32    1
    14    21    22   ar
    15    22    23   ar
    16    23     1    1
    17     1     3    1
    18     3     4   ar
    19     4     5   ar
    20     5     6   ar
    21     6     7    1
    22     6     8   ar
    23     8    10    1
    24    10    11   ar
    25    11    12   ar
    26    12    13   ar
    27    13    14   ar
    28    14    15   ar
    29    15    16   ar
    30    16    17   ar
    31    17    18   ar
    32     8     9   ar
    33    23    19   ar
    34     9     3   ar
    35    32    24    1
    36    18    10   ar
    37    18    13   ar
    38     1     2    1
