@<TRIPOS>MOLECULE
*****
 45 51 0 0 0
SMALL
GASTEIGER

@<TRIPOS>ATOM
      1 C         141.8933  139.3780  163.8142 C.ar    1  UNL1        0.0907
      2 C         142.6304  140.4244  164.5964 C.ar    1  UNL1        0.1496
      3 O         143.3956  141.2749  163.6263 O.2     1  UNL1       -0.4533
      4 C         143.1314  140.7542  162.2446 C.ar    1  UNL1        0.1467
      5 C         143.6162  141.1962  160.8957 C.ar    1  UNL1        0.0536
      6 C         143.1726  140.4657  159.6629 C.ar    1  UNL1        0.0730
      7 C         142.2442  139.2933  159.7791 C.ar    1  UNL1        0.0327
      8 C         141.7593  138.8514  161.1280 C.ar    1  UNL1        0.0061
      9 C         142.2029  139.5818  162.3608 C.ar    1  UNL1        0.0420
     10 C         141.8006  138.5628  158.5463 C.ar    1  UNL1        0.0825
     11 C         140.7256  139.1438  157.6763 C.ar    1  UNL1        0.0189
     12 C         140.2820  138.4134  156.4436 C.ar    1  UNL1       -0.0011
     13 C         140.9133  137.1020  156.0809 C.ar    1  UNL1       -0.0011
     14 C         141.9883  136.5211  156.9509 C.ar    1  UNL1        0.0931
     15 N         142.4319  137.2515  158.1836 N.ar    1  UNL1       -0.2442
     16 C         142.6197  135.2096  156.5881 C.ar    1  UNL1        0.0775
     17 C         143.6937  134.3963  157.2476 C.ar    1  UNL1        0.0224
     18 C         143.9138  133.1631  156.4224 C.ar    1  UNL1        0.0447
     19 C         144.8472  132.0002  156.5848 C.ar    1  UNL1        0.1415
     20 F         145.7852  131.9489  157.7543 F       1  UNL1       -0.2041
     21 C         144.8426  130.8885  155.5777 C.ar    1  UNL1        0.0297
     22 C         143.9047  130.9398  154.4083 C.ar    1  UNL1        0.0038
     23 C         142.9713  132.1027  154.2459 C.ar    1  UNL1        0.0173
     24 C         142.9759  133.2144  155.2530 C.ar    1  UNL1        0.0621
     25 N         142.1760  134.4792  155.3554 N.ar    1  UNL1       -0.3256
     26 C         141.1011  135.0602  154.4854 C.3     1  UNL1        0.1108
     27 C         140.4697  136.3715  154.8481 C.3     1  UNL1        0.0524
     28 C         142.6066  140.5909  166.0870 C.ar    1  UNL1        0.0349
     29 C         142.5665  141.9649  166.6875 C.ar    1  UNL1        0.0053
     30 C         142.5426  142.1315  168.1780 C.ar    1  UNL1        0.0297
     31 C         142.5588  140.9241  169.0680 C.ar    1  UNL1        0.1401
     32 F         142.5349  141.0907  170.5585 F       1  UNL1       -0.2042
     33 C         142.5989  139.5502  168.4674 C.ar    1  UNL1        0.0297
     34 C         142.6227  139.3836  166.9769 C.ar    1  UNL1        0.0053
     35 C         138.7505  137.6103  165.4721 C.3     1  UNL1        0.1109
     36 N         139.6409  138.6738  164.9010 N.am    1  UNL1       -0.2991
     37 C         141.0029  138.3145  164.3853 C.2     1  UNL1        0.2490
     38 O         141.4744  136.8916  164.4407 O.2     1  UNL1       -0.2700
     39 H         139.3314  139.6077  164.8647 H       1  UNL1        0.1498
     40 N         143.6575  140.9076  158.3140 N.pl3   1  UNL1       -0.1924
     41 C         144.3839  139.9424  157.4249 C.3     1  UNL1        0.1388
     42 S         143.4159  142.3149  157.8542 S.O2    1  UNL1        0.0588
     43 C         143.1743  143.7220  157.3944 C.3     1  UNL1        0.1999
     44 O         144.8962  142.5494  157.7941 O.2     1  UNL1       -0.1542
     45 O         141.9356  142.0803  157.9143 O.2     1  UNL1       -0.1542
@<TRIPOS>BOND
     1    35    36    1
     2    36    37   am
     3    37    38    2
     4    37     1    1
     5     1     2   ar
     6     2    28    1
     7    28    29   ar
     8    29    30   ar
     9    30    31   ar
    10    31    32    1
    11    31    33   ar
    12    33    34   ar
    13     2     3   ar
    14     3     4   ar
    15     4     5   ar
    16     5     6   ar
    17     6    40    1
    18    40    41    1
    19    40    42    1
    20    42    43    1
    21    42    44    2
    22    42    45    2
    23     6     7   ar
    24     7    10    1
    25    10    11   ar
    26    11    12   ar
    27    12    13   ar
    28    13    14   ar
    29    14    15   ar
    30    14    16    1
    31    16    17   ar
    32    17    18   ar
    33    18    19   ar
    34    19    20    1
    35    19    21   ar
    36    21    22   ar
    37    22    23   ar
    38    23    24   ar
    39    24    25   ar
    40    25    26    1
    41    26    27    1
    42     7     8   ar
    43     8     9   ar
    44     9     1   ar
    45    34    28   ar
    46     9     4   ar
    47    15    10   ar
    48    25    16   ar
    49    27    13    1
    50    24    18   ar
    51    36    39    1
@<TRIPOS>MOLECULE
*****
 45 51 0 0 0
SMALL
GASTEIGER

@<TRIPOS>ATOM
      1 C         141.0628  140.9662  164.0090 C.ar    1  UNL1        0.0907
      2 C         141.7834  142.0569  164.7446 C.ar    1  UNL1        0.1496
      3 O         142.4803  142.9167  163.7322 O.2     1  UNL1       -0.4533
      4 C         142.1905  142.3574  162.3709 C.ar    1  UNL1        0.1467
      5 C         142.6111  142.7900  160.9976 C.ar    1  UNL1        0.0536
      6 C         142.1557  142.0171  159.7954 C.ar    1  UNL1        0.0730
      7 C         141.2796  140.8116  159.9665 C.ar    1  UNL1        0.0327
      8 C         140.8590  140.3790  161.3398 C.ar    1  UNL1        0.0061
      9 C         141.3144  141.1518  162.5420 C.ar    1  UNL1        0.0420
     10 C         140.8242  140.0387  158.7643 C.ar    1  UNL1        0.0825
     11 C         139.7086  140.5666  157.9118 C.ar    1  UNL1        0.0189
     12 C         139.2531  139.7937  156.7096 C.ar    1  UNL1       -0.0011
     13 C         139.9132  138.4930  156.3600 C.ar    1  UNL1       -0.0011
     14 C         141.0288  137.9651  157.2125 C.ar    1  UNL1        0.0931
     15 N         141.4843  138.7380  158.4147 N.ar    1  UNL1       -0.2442
     16 C         141.6889  136.6643  156.8628 C.ar    1  UNL1        0.0775
     17 C         142.8047  135.8991  157.5104 C.ar    1  UNL1        0.0224
     18 C         143.0388  134.6533  156.7085 C.ar    1  UNL1        0.0447
     19 C         144.0108  133.5225  156.8715 C.ar    1  UNL1        0.1415
     20 F         144.9820  133.5271  158.0148 F       1  UNL1       -0.2041
     21 C         144.0117  132.3870  155.8914 C.ar    1  UNL1        0.0297
     22 C         143.0406  132.3823  154.7482 C.ar    1  UNL1        0.0038
     23 C         142.0687  133.5131  154.5851 C.ar    1  UNL1        0.0173
     24 C         142.0678  134.6486  155.5653 C.ar    1  UNL1        0.0621
     25 N         141.2335  135.8915  155.6607 N.ar    1  UNL1       -0.3256
     26 C         140.1179  136.4194  154.8082 C.3     1  UNL1        0.1108
     27 C         139.4577  137.7201  155.1578 C.3     1  UNL1        0.0524
     28 C         141.8035  142.2533  166.2316 C.ar    1  UNL1        0.0349
     29 C         140.5792  142.7550  166.9384 C.ar    1  UNL1        0.0053
     30 C         140.5993  142.9514  168.4253 C.ar    1  UNL1        0.0297
     31 C         141.8435  142.6462  169.2054 C.ar    1  UNL1        0.1401
     32 F         141.8636  142.8426  170.6924 F       1  UNL1       -0.2042
     33 C         143.0677  142.1445  168.4986 C.ar    1  UNL1        0.0297
     34 C         143.0477  141.9481  167.0117 C.ar    1  UNL1        0.0053
     35 C         138.0851  139.1241  165.8772 C.3     1  UNL1        0.1109
     36 N         138.9121  140.2099  165.2550 N.am    1  UNL1       -0.2991
     37 C         140.2358  139.8804  164.6312 C.2     1  UNL1        0.2490
     38 O         140.7325  138.4650  164.6296 O.2     1  UNL1       -0.2700
     39 H         138.5861  141.1389  165.2561 H       1  UNL1        0.1498
     40 N         142.5763  142.4497  158.4221 N.pl3   1  UNL1       -0.1924
     41 C         141.9121  143.6259  157.7700 C.3     1  UNL1        0.1388
     42 S         143.6612  141.7060  157.7009 S.O2    1  UNL1        0.0588
     43 C         144.7461  140.9624  156.9798 C.3     1  UNL1        0.1999
     44 O         142.7988  141.6360  156.4757 O.2     1  UNL1       -0.1542
     45 O         144.5236  141.7760  158.9262 O.2     1  UNL1       -0.1542
@<TRIPOS>BOND
     1    35    36    1
     2    36    37   am
     3    37    38    2
     4    37     1    1
     5     1     2   ar
     6     2    28    1
     7    28    29   ar
     8    29    30   ar
     9    30    31   ar
    10    31    32    1
    11    31    33   ar
    12    33    34   ar
    13     2     3   ar
    14     3     4   ar
    15     4     5   ar
    16     5     6   ar
    17     6    40    1
    18    40    41    1
    19    40    42    1
    20    42    43    1
    21    42    44    2
    22    42    45    2
    23     6     7   ar
    24     7    10    1
    25    10    11   ar
    26    11    12   ar
    27    12    13   ar
    28    13    14   ar
    29    14    15   ar
    30    14    16    1
    31    16    17   ar
    32    17    18   ar
    33    18    19   ar
    34    19    20    1
    35    19    21   ar
    36    21    22   ar
    37    22    23   ar
    38    23    24   ar
    39    24    25   ar
    40    25    26    1
    41    26    27    1
    42     7     8   ar
    43     8     9   ar
    44     9     1   ar
    45    34    28   ar
    46     9     4   ar
    47    15    10   ar
    48    25    16   ar
    49    27    13    1
    50    24    18   ar
    51    36    39    1
@<TRIPOS>MOLECULE
*****
 45 51 0 0 0
SMALL
GASTEIGER

@<TRIPOS>ATOM
      1 C         139.8726  141.1173  160.7565 C.ar    1  UNL1        0.0907
      2 C         140.3596  142.4408  161.2676 C.ar    1  UNL1        0.1496
      3 O         141.2929  143.0177  160.2448 O.2     1  UNL1       -0.4533
      4 C         141.3828  142.0508  159.1016 C.ar    1  UNL1        0.1467
      5 C         142.1505  142.0880  157.8135 C.ar    1  UNL1        0.0536
      6 C         142.0404  140.9507  156.8416 C.ar    1  UNL1        0.0730
      7 C         141.1626  139.7762  157.1578 C.ar    1  UNL1        0.0327
      8 C         140.3949  139.7390  158.4459 C.ar    1  UNL1        0.0061
      9 C         140.5050  140.8762  159.4178 C.ar    1  UNL1        0.0420
     10 C         141.0525  138.6389  156.1860 C.ar    1  UNL1        0.0825
     11 C         140.1519  138.7571  154.9922 C.ar    1  UNL1        0.0189
     12 C         140.0418  137.6198  154.0203 C.ar    1  UNL1       -0.0011
     13 C         140.8322  136.3645  154.2422 C.ar    1  UNL1       -0.0011
     14 C         141.7328  136.2464  155.4360 C.ar    1  UNL1        0.0931
     15 N         141.8429  137.3836  156.4078 N.ar    1  UNL1       -0.2442
     16 C         142.5233  134.9909  155.6578 C.ar    1  UNL1        0.0775
     17 C         143.4858  134.5882  156.7355 C.ar    1  UNL1        0.0224
     18 C         143.9706  133.2021  156.4296 C.ar    1  UNL1        0.0447
     19 C         144.9300  132.2945  157.1408 C.ar    1  UNL1        0.1415
     20 F         145.5930  132.7484  158.4075 F       1  UNL1       -0.2041
     21 C         145.2265  130.9330  156.5854 C.ar    1  UNL1        0.0297
     22 C         144.5635  130.4791  155.3187 C.ar    1  UNL1        0.0038
     23 C         143.6041  131.3866  154.6075 C.ar    1  UNL1        0.0173
     24 C         143.3076  132.7481  155.1630 C.ar    1  UNL1        0.0621
     25 N         142.4131  133.8537  154.6860 N.ar    1  UNL1       -0.3256
     26 C         141.5126  133.9718  153.4922 C.3     1  UNL1        0.1108
     27 C         140.7221  135.2272  153.2703 C.3     1  UNL1        0.0524
     28 C         139.9799  143.0759  162.5724 C.ar    1  UNL1        0.0349
     29 C         138.6696  143.7941  162.7037 C.ar    1  UNL1        0.0053
     30 C         138.2898  144.4291  164.0085 C.ar    1  UNL1        0.0297
     31 C         139.2204  144.3460  165.1819 C.ar    1  UNL1        0.1401
     32 F         138.8407  144.9811  166.4868 F       1  UNL1       -0.2042
     33 C         140.5308  143.6278  165.0506 C.ar    1  UNL1        0.0297
     34 C         140.9105  142.9928  163.7459 C.ar    1  UNL1        0.0053
     35 C         138.4740  138.0105  162.7917 C.3     1  UNL1        0.1109
     36 N         139.4262  138.9313  162.0877 N.am    1  UNL1       -0.2991
     37 C         138.9205  140.1965  161.4604 C.2     1  UNL1        0.2490
     38 O         137.4626  140.5409  161.5371 O.2     1  UNL1       -0.2700
     39 H         140.3831  138.7053  162.0374 H       1  UNL1        0.1498
     40 N         142.8081  140.9879  155.5535 N.pl3   1  UNL1       -0.1924
     41 C         142.3688  141.8975  154.4446 C.3     1  UNL1        0.1388
     42 S         144.0152  140.1156  155.3743 S.O2    1  UNL1        0.0588
     43 C         145.2222  139.2432  155.1951 C.3     1  UNL1        0.1999
     44 O         144.5486  140.5821  156.6963 O.2     1  UNL1       -0.1542
     45 O         143.4817  139.6491  154.0523 O.2     1  UNL1       -0.1542
@<TRIPOS>BOND
     1    35    36    1
     2    36    37   am
     3    37    38    2
     4    37     1    1
     5     1     2   ar
     6     2    28    1
     7    28    29   ar
     8    29    30   ar
     9    30    31   ar
    10    31    32    1
    11    31    33   ar
    12    33    34   ar
    13     2     3   ar
    14     3     4   ar
    15     4     5   ar
    16     5     6   ar
    17     6    40    1
    18    40    41    1
    19    40    42    1
    20    42    43    1
    21    42    44    2
    22    42    45    2
    23     6     7   ar
    24     7    10    1
    25    10    11   ar
    26    11    12   ar
    27    12    13   ar
    28    13    14   ar
    29    14    15   ar
    30    14    16    1
    31    16    17   ar
    32    17    18   ar
    33    18    19   ar
    34    19    20    1
    35    19    21   ar
    36    21    22   ar
    37    22    23   ar
    38    23    24   ar
    39    24    25   ar
    40    25    26    1
    41    26    27    1
    42     7     8   ar
    43     8     9   ar
    44     9     1   ar
    45    34    28   ar
    46     9     4   ar
    47    15    10   ar
    48    25    16   ar
    49    27    13    1
    50    24    18   ar
    51    36    39    1
@<TRIPOS>MOLECULE
*****
 45 51 0 0 0
SMALL
GASTEIGER

@<TRIPOS>ATOM
      1 C         140.5290  141.6461  164.4723 C.ar    1  UNL1        0.0907
      2 C         141.2964  142.6281  165.3071 C.ar    1  UNL1        0.1496
      3 O         141.7990  143.7132  164.4015 O.2     1  UNL1       -0.4533
      4 C         141.3424  143.4018  163.0071 C.ar    1  UNL1        0.1467
      5 C         141.5398  144.1164  161.7032 C.ar    1  UNL1        0.0536
      6 C         140.9524  143.5535  160.4429 C.ar    1  UNL1        0.0730
      7 C         140.1675  142.2760  160.4867 C.ar    1  UNL1        0.0327
      8 C         139.9701  141.5613  161.7906 C.ar    1  UNL1        0.0061
      9 C         140.5574  142.1242  163.0508 C.ar    1  UNL1        0.0420
     10 C         139.5801  141.7131  159.2264 C.ar    1  UNL1        0.0825
     11 C         138.3150  142.2915  158.6651 C.ar    1  UNL1        0.0189
     12 C         137.7276  141.7286  157.4049 C.ar    1  UNL1       -0.0011
     13 C         138.4052  140.5874  156.7061 C.ar    1  UNL1       -0.0011
     14 C         139.6703  140.0091  157.2674 C.ar    1  UNL1        0.0931
     15 N         140.2577  140.5719  158.5276 N.ar    1  UNL1       -0.2442
     16 C         140.3479  138.8678  156.5685 C.ar    1  UNL1        0.0775
     17 C         141.5962  138.0976  156.8824 C.ar    1  UNL1        0.0224
     18 C         141.7802  137.0587  155.8162 C.ar    1  UNL1        0.0447
     19 C         142.8343  136.0125  155.6055 C.ar    1  UNL1        0.1415
     20 F         143.9689  135.8843  156.5783 F       1  UNL1       -0.2041
     21 C         142.7538  135.0945  154.4219 C.ar    1  UNL1        0.0297
     22 C         141.6193  135.2226  153.4491 C.ar    1  UNL1        0.0038
     23 C         140.5653  136.2688  153.6598 C.ar    1  UNL1        0.0173
     24 C         140.6457  137.1869  154.8434 C.ar    1  UNL1        0.0621
     25 N         139.7605  138.3050  155.3083 N.ar    1  UNL1       -0.3256
     26 C         138.4954  138.8833  154.7470 C.3     1  UNL1        0.1108
     27 C         137.8178  140.0245  155.4458 C.3     1  UNL1        0.0524
     28 C         141.5215  142.5404  166.7875 C.ar    1  UNL1        0.0349
     29 C         140.4105  142.8801  167.7365 C.ar    1  UNL1        0.0053
     30 C         140.6356  142.7924  169.2169 C.ar    1  UNL1        0.0297
     31 C         141.9716  142.3651  169.7483 C.ar    1  UNL1        0.1401
     32 F         142.1967  142.2775  171.2288 F       1  UNL1       -0.2042
     33 C         143.0825  142.0255  168.7994 C.ar    1  UNL1        0.0297
     34 C         142.8575  142.1132  167.3190 C.ar    1  UNL1        0.0053
     35 C         139.6961  137.8126  165.0728 C.3     1  UNL1        0.1109
     36 N         140.3730  139.0547  164.5738 N.am    1  UNL1       -0.2991
     37 C         139.8522  140.4040  164.9713 C.2     1  UNL1        0.2490
     38 O         138.6544  140.5112  165.8679 O.2     1  UNL1       -0.2700
     39 H         141.1591  138.9843  163.9853 H       1  UNL1        0.1498
     40 N         141.1498  144.2682  159.1390 N.pl3   1  UNL1       -0.1924
     41 C         140.3392  145.4901  158.8231 C.3     1  UNL1        0.1388
     42 S         142.1580  143.7608  158.1508 S.O2    1  UNL1        0.0588
     43 C         143.1660  143.2536  157.1627 C.3     1  UNL1        0.1999
     44 O         143.1953  143.7137  159.2332 O.2     1  UNL1       -0.1542
     45 O         141.1207  143.8080  157.0684 O.2     1  UNL1       -0.1542
@<TRIPOS>BOND
     1    35    36    1
     2    36    37   am
     3    37    38    2
     4    37     1    1
     5     1     2   ar
     6     2    28    1
     7    28    29   ar
     8    29    30   ar
     9    30    31   ar
    10    31    32    1
    11    31    33   ar
    12    33    34   ar
    13     2     3   ar
    14     3     4   ar
    15     4     5   ar
    16     5     6   ar
    17     6    40    1
    18    40    41    1
    19    40    42    1
    20    42    43    1
    21    42    44    2
    22    42    45    2
    23     6     7   ar
    24     7    10    1
    25    10    11   ar
    26    11    12   ar
    27    12    13   ar
    28    13    14   ar
    29    14    15   ar
    30    14    16    1
    31    16    17   ar
    32    17    18   ar
    33    18    19   ar
    34    19    20    1
    35    19    21   ar
    36    21    22   ar
    37    22    23   ar
    38    23    24   ar
    39    24    25   ar
    40    25    26    1
    41    26    27    1
    42     7     8   ar
    43     8     9   ar
    44     9     1   ar
    45    34    28   ar
    46     9     4   ar
    47    15    10   ar
    48    25    16   ar
    49    27    13    1
    50    24    18   ar
    51    36    39    1
@<TRIPOS>MOLECULE
*****
 45 51 0 0 0
SMALL
GASTEIGER

@<TRIPOS>ATOM
      1 C         142.1487  141.1058  162.2323 C.ar    1  UNL1        0.0907
      2 C         141.5742  140.0009  163.0686 C.ar    1  UNL1        0.1496
      3 O         140.5905  139.2450  162.2255 O.2     1  UNL1       -0.4533
      4 C         140.5570  139.8826  160.8682 C.ar    1  UNL1        0.1467
      5 C         139.7740  139.5646  159.6289 C.ar    1  UNL1        0.0536
      6 C         139.9541  140.3966  158.3938 C.ar    1  UNL1        0.0730
      7 C         140.9171  141.5466  158.3981 C.ar    1  UNL1        0.0327
      8 C         141.7001  141.8646  159.6374 C.ar    1  UNL1        0.0061
      9 C         141.5201  141.0326  160.8724 C.ar    1  UNL1        0.0420
     10 C         141.0972  142.3787  157.1630 C.ar    1  UNL1        0.0825
     11 C         141.8150  141.8112  155.9745 C.ar    1  UNL1        0.0189
     12 C         141.9951  142.6431  154.7394 C.ar    1  UNL1       -0.0011
     13 C         141.4574  144.0426  154.6930 C.ar    1  UNL1       -0.0011
     14 C         140.7396  144.6102  155.8815 C.ar    1  UNL1        0.0931
     15 N         140.5595  143.7782  157.1165 N.ar    1  UNL1       -0.2442
     16 C         140.2019  146.0097  155.8350 C.ar    1  UNL1        0.0775
     17 C         139.4568  146.8327  156.8438 C.ar    1  UNL1        0.0224
     18 C         139.1764  148.1733  156.2322 C.ar    1  UNL1        0.0447
     19 C         138.4744  149.3898  156.7588 C.ar    1  UNL1        0.1415
     20 F         137.9025  149.3842  158.1456 F       1  UNL1       -0.2041
     21 C         138.3440  150.6118  155.8987 C.ar    1  UNL1        0.0297
     22 C         138.9158  150.6174  154.5120 C.ar    1  UNL1        0.0038
     23 C         139.6179  149.4009  153.9854 C.ar    1  UNL1        0.0173
     24 C         139.7482  148.1789  154.8455 C.ar    1  UNL1        0.0621
     25 N         140.3820  146.8417  154.6000 N.ar    1  UNL1       -0.3256
     26 C         141.0998  146.2742  153.4114 C.3     1  UNL1        0.1108
     27 C         141.6375  144.8747  153.4579 C.3     1  UNL1        0.0524
     28 C         141.9223  139.7042  164.4972 C.ar    1  UNL1        0.0349
     29 C         141.1163  140.3111  165.6072 C.ar    1  UNL1        0.0053
     30 C         141.4643  140.0144  167.0357 C.ar    1  UNL1        0.0297
     31 C         142.6184  139.1108  167.3543 C.ar    1  UNL1        0.1401
     32 F         142.9666  138.8140  168.7829 F       1  UNL1       -0.2042
     33 C         143.4245  138.5039  166.2443 C.ar    1  UNL1        0.0297
     34 C         143.0764  138.8006  164.8158 C.ar    1  UNL1        0.0053
     35 C         143.8394  144.5652  163.1934 C.3     1  UNL1        0.1109
     36 N         142.8159  143.5632  162.7479 N.am    1  UNL1       -0.2991
     37 C         143.1721  142.1078  162.6778 C.2     1  UNL1        0.2490
     38 O         144.5518  141.6545  163.0532 O.2     1  UNL1       -0.2700
     39 H         141.9104  143.8608  162.5016 H       1  UNL1        0.1498
     40 N         139.1712  140.0786  157.1545 N.pl3   1  UNL1       -0.1924
     41 C         139.6326  138.9867  156.2354 C.3     1  UNL1        0.1388
     42 S         137.9267  140.8525  156.8344 S.O2    1  UNL1        0.0588
     43 C         136.6823  141.6264  156.5143 C.3     1  UNL1        0.1999
     44 O         137.3501  140.4768  158.1672 O.2     1  UNL1       -0.1542
     45 O         138.5032  141.2282  155.5016 O.2     1  UNL1       -0.1542
@<TRIPOS>BOND
     1    35    36    1
     2    36    37   am
     3    37    38    2
     4    37     1    1
     5     1     2   ar
     6     2    28    1
     7    28    29   ar
     8    29    30   ar
     9    30    31   ar
    10    31    32    1
    11    31    33   ar
    12    33    34   ar
    13     2     3   ar
    14     3     4   ar
    15     4     5   ar
    16     5     6   ar
    17     6    40    1
    18    40    41    1
    19    40    42    1
    20    42    43    1
    21    42    44    2
    22    42    45    2
    23     6     7   ar
    24     7    10    1
    25    10    11   ar
    26    11    12   ar
    27    12    13   ar
    28    13    14   ar
    29    14    15   ar
    30    14    16    1
    31    16    17   ar
    32    17    18   ar
    33    18    19   ar
    34    19    20    1
    35    19    21   ar
    36    21    22   ar
    37    22    23   ar
    38    23    24   ar
    39    24    25   ar
    40    25    26    1
    41    26    27    1
    42     7     8   ar
    43     8     9   ar
    44     9     1   ar
    45    34    28   ar
    46     9     4   ar
    47    15    10   ar
    48    25    16   ar
    49    27    13    1
    50    24    18   ar
    51    36    39    1
@<TRIPOS>MOLECULE
*****
 45 51 0 0 0
SMALL
GASTEIGER

@<TRIPOS>ATOM
      1 C         141.1573  138.0379  157.6911 C.ar    1  UNL1        0.0907
      2 C         142.1391  137.0018  157.2297 C.ar    1  UNL1        0.1496
      3 O         143.2133  136.8853  158.2701 O.2     1  UNL1       -0.4533
      4 C         142.8955  137.8493  159.3745 C.ar    1  UNL1        0.1467
      5 C         143.5990  138.1706  160.6598 C.ar    1  UNL1        0.0536
      6 C         143.0318  139.2042  161.5872 C.ar    1  UNL1        0.0730
      7 C         141.7612  139.9165  161.2293 C.ar    1  UNL1        0.0327
      8 C         141.0577  139.5952  159.9441 C.ar    1  UNL1        0.0061
      9 C         141.6248  138.5617  159.0167 C.ar    1  UNL1        0.0420
     10 C         141.1940  140.9501  162.1568 C.ar    1  UNL1        0.0825
     11 C         140.5331  142.1758  161.5995 C.ar    1  UNL1        0.0189
     12 C         139.9659  143.2094  162.5268 C.ar    1  UNL1       -0.0011
     13 C         140.0597  143.0172  164.0115 C.ar    1  UNL1       -0.0011
     14 C         140.7207  141.7914  164.5688 C.ar    1  UNL1        0.0931
     15 N         141.2879  140.7579  163.6414 N.ar    1  UNL1       -0.2442
     16 C         140.8145  141.5993  166.0535 C.ar    1  UNL1        0.0775
     17 C         141.4042  140.5013  166.8881 C.ar    1  UNL1        0.0224
     18 C         141.2015  140.8563  168.3313 C.ar    1  UNL1        0.0447
     19 C         141.5756  140.1502  169.6007 C.ar    1  UNL1        0.1415
     20 F         142.2906  138.8327  169.5435 F       1  UNL1       -0.2041
     21 C         141.2347  140.7614  170.9275 C.ar    1  UNL1        0.0297
     22 C         140.5197  142.0788  170.9848 C.ar    1  UNL1        0.0038
     23 C         140.1456  142.7849  169.7154 C.ar    1  UNL1        0.0173
     24 C         140.4865  142.1736  168.3886 C.ar    1  UNL1        0.0621
     25 N         140.2473  142.6328  166.9808 N.ar    1  UNL1       -0.3256
     26 C         139.5863  143.8586  166.4235 C.3     1  UNL1        0.1108
     27 C         139.4925  144.0508  164.9389 C.3     1  UNL1        0.0524
     28 C         142.0603  136.2196  155.9522 C.ar    1  UNL1        0.0349
     29 C         142.0119  136.9367  154.6356 C.ar    1  UNL1        0.0053
     30 C         141.9332  136.1546  153.3581 C.ar    1  UNL1        0.0297
     31 C         141.9028  134.6554  153.3972 C.ar    1  UNL1        0.1401
     32 F         141.8240  133.8732  152.1197 F       1  UNL1       -0.2042
     33 C         141.9512  133.9384  154.7138 C.ar    1  UNL1        0.0297
     34 C         142.0299  134.7205  155.9913 C.ar    1  UNL1        0.0053
     35 C         138.4397  140.3680  155.9779 C.3     1  UNL1        0.1109
     36 N         139.6725  139.9322  156.7130 N.am    1  UNL1       -0.2991
     37 C         139.9246  138.4737  156.9561 C.2     1  UNL1        0.2490
     38 O         138.9438  137.4510  156.4640 O.2     1  UNL1       -0.2700
     39 H         140.3162  140.6035  157.0359 H       1  UNL1        0.1498
     40 N         143.7353  139.5254  162.8725 N.pl3   1  UNL1       -0.1924
     41 C         143.5285  138.6572  164.0780 C.3     1  UNL1        0.1388
     42 S         144.6457  140.7149  162.9522 S.O2    1  UNL1        0.0588
     43 C         145.5561  141.9044  163.0319 C.3     1  UNL1        0.1999
     44 O         144.6886  140.7825  161.4543 O.2     1  UNL1       -0.1542
     45 O         144.6029  140.6473  164.4500 O.2     1  UNL1       -0.1542
@<TRIPOS>BOND
     1    35    36    1
     2    36    37   am
     3    37    38    2
     4    37     1    1
     5     1     2   ar
     6     2    28    1
     7    28    29   ar
     8    29    30   ar
     9    30    31   ar
    10    31    32    1
    11    31    33   ar
    12    33    34   ar
    13     2     3   ar
    14     3     4   ar
    15     4     5   ar
    16     5     6   ar
    17     6    40    1
    18    40    41    1
    19    40    42    1
    20    42    43    1
    21    42    44    2
    22    42    45    2
    23     6     7   ar
    24     7    10    1
    25    10    11   ar
    26    11    12   ar
    27    12    13   ar
    28    13    14   ar
    29    14    15   ar
    30    14    16    1
    31    16    17   ar
    32    17    18   ar
    33    18    19   ar
    34    19    20    1
    35    19    21   ar
    36    21    22   ar
    37    22    23   ar
    38    23    24   ar
    39    24    25   ar
    40    25    26    1
    41    26    27    1
    42     7     8   ar
    43     8     9   ar
    44     9     1   ar
    45    34    28   ar
    46     9     4   ar
    47    15    10   ar
    48    25    16   ar
    49    27    13    1
    50    24    18   ar
    51    36    39    1
@<TRIPOS>MOLECULE
*****
 45 51 0 0 0
SMALL
GASTEIGER

@<TRIPOS>ATOM
      1 C         141.7362  141.3880  163.4346 C.ar    1  UNL1        0.0907
      2 C         141.3585  140.1640  164.2153 C.ar    1  UNL1        0.1496
      3 O         141.0610  139.0649  163.2389 O.2     1  UNL1       -0.4533
      4 C         141.2547  139.6095  161.8547 C.ar    1  UNL1        0.1467
      5 C         141.1051  138.9836  160.4998 C.ar    1  UNL1        0.0536
      6 C         141.3728  139.7934  159.2658 C.ar    1  UNL1        0.0730
      7 C         141.7900  141.2291  159.3868 C.ar    1  UNL1        0.0327
      8 C         141.9397  141.8550  160.7417 C.ar    1  UNL1        0.0061
      9 C         141.6720  141.0453  161.9757 C.ar    1  UNL1        0.0420
     10 C         142.0577  142.0389  158.1528 C.ar    1  UNL1        0.0825
     11 C         140.9719  142.8901  157.5643 C.ar    1  UNL1        0.0189
     12 C         141.2395  143.6999  156.3304 C.ar    1  UNL1       -0.0011
     13 C         142.5929  143.6585  155.6850 C.ar    1  UNL1       -0.0011
     14 C         143.6787  142.8072  156.2736 C.ar    1  UNL1        0.0931
     15 N         143.4111  141.9974  157.5075 N.ar    1  UNL1       -0.2442
     16 C         145.0322  142.7658  155.6282 C.ar    1  UNL1        0.0775
     17 C         146.2888  142.0254  155.9784 C.ar    1  UNL1        0.0224
     18 C         147.3331  142.3776  154.9608 C.ar    1  UNL1        0.0447
     19 C         148.7617  141.9497  154.7992 C.ar    1  UNL1        0.1415
     20 F         149.3730  140.9916  155.7782 F       1  UNL1       -0.2041
     21 C         149.5790  142.4799  153.6586 C.ar    1  UNL1        0.0297
     22 C         148.9678  143.4380  152.6796 C.ar    1  UNL1        0.0038
     23 C         147.5392  143.8659  152.8412 C.ar    1  UNL1        0.0173
     24 C         146.7219  143.3357  153.9818 C.ar    1  UNL1        0.0621
     25 N         145.2998  143.5756  154.3943 N.ar    1  UNL1       -0.3256
     26 C         144.2140  144.4269  153.8057 C.3     1  UNL1        0.1108
     27 C         142.8606  144.4683  154.4511 C.3     1  UNL1        0.0524
     28 C         141.2904  140.0579  165.7100 C.ar    1  UNL1        0.0349
     29 C         139.9863  140.2751  166.4186 C.ar    1  UNL1        0.0053
     30 C         139.9181  140.1690  167.9133 C.ar    1  UNL1        0.0297
     31 C         141.1540  139.8458  168.6994 C.ar    1  UNL1        0.1401
     32 F         141.0859  139.7396  170.1941 F       1  UNL1       -0.2042
     33 C         142.4581  139.6286  167.9907 C.ar    1  UNL1        0.0297
     34 C         142.5263  139.7347  166.4961 C.ar    1  UNL1        0.0053
     35 C         143.8291  144.6513  164.2832 C.3     1  UNL1        0.1109
     36 N         143.4533  143.3187  163.7063 N.am    1  UNL1       -0.2991
     37 C         142.1120  142.7206  164.0115 C.2     1  UNL1        0.2490
     38 O         141.1465  143.4552  164.8936 O.2     1  UNL1       -0.2700
     39 H         144.0870  142.8366  163.1273 H       1  UNL1        0.1498
     40 N         141.2232  139.1675  157.9109 N.pl3   1  UNL1       -0.1924
     41 C         140.2502  139.7403  156.9234 C.3     1  UNL1        0.1388
     42 S         142.0465  137.9686  157.5435 S.O2    1  UNL1        0.0588
     43 C         142.8698  136.7698  157.1762 C.3     1  UNL1        0.1999
     44 O         143.2895  138.6911  157.9713 O.2     1  UNL1       -0.1542
     45 O         140.8036  137.2461  157.1157 O.2     1  UNL1       -0.1542
@<TRIPOS>BOND
     1    35    36    1
     2    36    37   am
     3    37    38    2
     4    37     1    1
     5     1     2   ar
     6     2    28    1
     7    28    29   ar
     8    29    30   ar
     9    30    31   ar
    10    31    32    1
    11    31    33   ar
    12    33    34   ar
    13     2     3   ar
    14     3     4   ar
    15     4     5   ar
    16     5     6   ar
    17     6    40    1
    18    40    41    1
    19    40    42    1
    20    42    43    1
    21    42    44    2
    22    42    45    2
    23     6     7   ar
    24     7    10    1
    25    10    11   ar
    26    11    12   ar
    27    12    13   ar
    28    13    14   ar
    29    14    15   ar
    30    14    16    1
    31    16    17   ar
    32    17    18   ar
    33    18    19   ar
    34    19    20    1
    35    19    21   ar
    36    21    22   ar
    37    22    23   ar
    38    23    24   ar
    39    24    25   ar
    40    25    26    1
    41    26    27    1
    42     7     8   ar
    43     8     9   ar
    44     9     1   ar
    45    34    28   ar
    46     9     4   ar
    47    15    10   ar
    48    25    16   ar
    49    27    13    1
    50    24    18   ar
    51    36    39    1
@<TRIPOS>MOLECULE
*****
 45 51 0 0 0
SMALL
GASTEIGER

@<TRIPOS>ATOM
      1 C         139.1256  141.2782  157.5757 C.ar    1  UNL1        0.0907
      2 C         138.6132  140.1252  156.7644 C.ar    1  UNL1        0.1496
      3 O         139.1541  138.8606  157.3630 O.2     1  UNL1       -0.4533
      4 C         140.0007  139.2321  158.5442 C.ar    1  UNL1        0.1467
      5 C         140.7854  138.4028  159.5171 C.ar    1  UNL1        0.0536
      6 C         141.5525  139.0677  160.6215 C.ar    1  UNL1        0.0730
      7 C         141.5349  140.5618  160.7528 C.ar    1  UNL1        0.0327
      8 C         140.7502  141.3911  159.7799 C.ar    1  UNL1        0.0061
      9 C         139.9831  140.7262  158.6756 C.ar    1  UNL1        0.0420
     10 C         142.3020  141.2267  161.8572 C.ar    1  UNL1        0.0825
     11 C         143.5600  141.9826  161.5470 C.ar    1  UNL1        0.0189
     12 C         144.3271  142.6475  162.6512 C.ar    1  UNL1       -0.0011
     13 C         143.8363  142.5565  164.0657 C.ar    1  UNL1       -0.0011
     14 C         142.5783  141.8007  164.3759 C.ar    1  UNL1        0.0931
     15 N         141.8112  141.1358  163.2716 N.ar    1  UNL1       -0.2442
     16 C         142.0875  141.7097  165.7905 C.ar    1  UNL1        0.0775
     17 C         140.8903  141.0392  166.3962 C.ar    1  UNL1        0.0224
     18 C         140.9174  141.2897  167.8749 C.ar    1  UNL1        0.0447
     19 C         139.9935  140.8730  168.9806 C.ar    1  UNL1        0.1415
     20 F         138.7794  140.0476  168.6726 F       1  UNL1       -0.2041
     21 C         140.2836  141.2816  170.3945 C.ar    1  UNL1        0.0297
     22 C         141.4977  142.1069  170.7026 C.ar    1  UNL1        0.0038
     23 C         142.4216  142.5236  169.5968 C.ar    1  UNL1        0.0173
     24 C         142.1315  142.1150  168.1830 C.ar    1  UNL1        0.0621
     25 N         142.8546  142.3746  166.8947 N.ar    1  UNL1       -0.3256
     26 C         144.1126  143.1305  166.5845 C.3     1  UNL1        0.1108
     27 C         144.6034  143.2215  165.1700 C.3     1  UNL1        0.0524
     28 C         137.7172  140.2201  155.5651 C.ar    1  UNL1        0.0349
     29 C         136.2963  140.6735  155.7245 C.ar    1  UNL1        0.0053
     30 C         135.4003  140.7684  154.5253 C.ar    1  UNL1        0.0297
     31 C         135.9253  140.4101  153.1666 C.ar    1  UNL1        0.1401
     32 F         135.0293  140.5050  151.9673 F       1  UNL1       -0.2042
     33 C         137.3463  139.9567  153.0072 C.ar    1  UNL1        0.0297
     34 C         138.2422  139.8618  154.2065 C.ar    1  UNL1        0.0053
     35 C         139.5711  145.0542  156.4384 C.3     1  UNL1        0.1109
     36 N         139.8647  143.6039  156.6840 N.am    1  UNL1       -0.2991
     37 C         138.8320  142.7285  157.3300 C.2     1  UNL1        0.2490
     38 O         137.5057  143.3036  157.7304 O.2     1  UNL1       -0.2700
     39 H         140.7352  143.2265  156.4212 H       1  UNL1        0.1498
     40 N         142.3372  138.2385  161.5944 N.pl3   1  UNL1       -0.1924
     41 C         143.7671  137.8920  161.3021 C.3     1  UNL1        0.1388
     42 S         141.6920  137.7557  162.8596 S.O2    1  UNL1        0.0588
     43 C         141.0468  137.2729  164.1247 C.3     1  UNL1        0.1999
     44 O         142.9436  138.0781  163.6209 O.2     1  UNL1       -0.1542
     45 O         140.4405  137.4332  162.0983 O.2     1  UNL1       -0.1542
@<TRIPOS>BOND
     1    35    36    1
     2    36    37   am
     3    37    38    2
     4    37     1    1
     5     1     2   ar
     6     2    28    1
     7    28    29   ar
     8    29    30   ar
     9    30    31   ar
    10    31    32    1
    11    31    33   ar
    12    33    34   ar
    13     2     3   ar
    14     3     4   ar
    15     4     5   ar
    16     5     6   ar
    17     6    40    1
    18    40    41    1
    19    40    42    1
    20    42    43    1
    21    42    44    2
    22    42    45    2
    23     6     7   ar
    24     7    10    1
    25    10    11   ar
    26    11    12   ar
    27    12    13   ar
    28    13    14   ar
    29    14    15   ar
    30    14    16    1
    31    16    17   ar
    32    17    18   ar
    33    18    19   ar
    34    19    20    1
    35    19    21   ar
    36    21    22   ar
    37    22    23   ar
    38    23    24   ar
    39    24    25   ar
    40    25    26    1
    41    26    27    1
    42     7     8   ar
    43     8     9   ar
    44     9     1   ar
    45    34    28   ar
    46     9     4   ar
    47    15    10   ar
    48    25    16   ar
    49    27    13    1
    50    24    18   ar
    51    36    39    1
@<TRIPOS>MOLECULE
*****
 45 51 0 0 0
SMALL
GASTEIGER

@<TRIPOS>ATOM
      1 C         141.0192  141.6598  162.3656 C.ar    1  UNL1        0.0907
      2 C         140.2044  140.7206  163.2047 C.ar    1  UNL1        0.1496
      3 O         139.1544  140.1068  162.3268 O.2     1  UNL1       -0.4533
      4 C         139.3202  140.6666  160.9451 C.ar    1  UNL1        0.1467
      5 C         138.5707  140.4265  159.6682 C.ar    1  UNL1        0.0536
      6 C         138.9737  141.1461  158.4152 C.ar    1  UNL1        0.0730
      7 C         140.1262  142.1059  158.4393 C.ar    1  UNL1        0.0327
      8 C         140.8757  142.3461  159.7162 C.ar    1  UNL1        0.0061
      9 C         140.4728  141.6265  160.9691 C.ar    1  UNL1        0.0420
     10 C         140.5292  142.8256  157.1863 C.ar    1  UNL1        0.0825
     11 C         141.3604  142.1245  156.1531 C.ar    1  UNL1        0.0189
     12 C         141.7634  142.8441  154.9002 C.ar    1  UNL1       -0.0011
     13 C         141.3351  144.2648  154.6806 C.ar    1  UNL1       -0.0011
     14 C         140.5039  144.9658  155.7138 C.ar    1  UNL1        0.0931
     15 N         140.1009  144.2462  156.9667 N.ar    1  UNL1       -0.2442
     16 C         140.0757  146.3866  155.4941 C.ar    1  UNL1        0.0775
     17 C         139.2596  147.3292  156.3280 C.ar    1  UNL1        0.0224
     18 C         139.1582  148.6314  155.5905 C.ar    1  UNL1        0.0447
     19 C         138.4772  149.9249  155.9266 C.ar    1  UNL1        0.1415
     20 F         137.7237  150.0628  157.2164 F       1  UNL1       -0.2041
     21 C         138.5496  151.0806  154.9731 C.ar    1  UNL1        0.0297
     22 C         139.3030  150.9427  153.6834 C.ar    1  UNL1        0.0038
     23 C         139.9840  149.6492  153.3473 C.ar    1  UNL1        0.0173
     24 C         139.9116  148.4936  154.3008 C.ar    1  UNL1        0.0621
     25 N         140.4787  147.1062  154.2412 N.ar    1  UNL1       -0.3256
     26 C         141.3099  146.4051  153.2080 C.3     1  UNL1        0.1108
     27 C         141.7381  144.9844  153.4277 C.3     1  UNL1        0.0524
     28 C         140.4045  140.4438  164.6653 C.ar    1  UNL1        0.0349
     29 C         141.6050  139.6704  165.1245 C.ar    1  UNL1        0.0053
     30 C         141.8051  139.3936  166.5851 C.ar    1  UNL1        0.0297
     31 C         140.8048  139.8901  167.5864 C.ar    1  UNL1        0.1401
     32 F         141.0049  139.6133  169.0471 F       1  UNL1       -0.2042
     33 C         139.6044  140.6635  167.1273 C.ar    1  UNL1        0.0297
     34 C         139.4042  140.9403  165.6667 C.ar    1  UNL1        0.0053
     35 C         144.7184  143.0262  162.8109 C.3     1  UNL1        0.1109
     36 N         143.5605  142.1990  162.3367 N.am    1  UNL1       -0.2991
     37 C         142.1771  142.4871  162.8398 C.2     1  UNL1        0.2490
     38 O         141.9516  143.6025  163.8170 O.2     1  UNL1       -0.2700
     39 H         143.7085  141.4669  161.6953 H       1  UNL1        0.1498
     40 N         138.2242  140.9060  157.1383 N.pl3   1  UNL1       -0.1924
     41 C         137.0181  141.7349  156.8093 C.3     1  UNL1        0.1388
     42 S         138.6808  139.8369  156.1903 S.O2    1  UNL1        0.0588
     43 C         139.1374  138.7678  155.2425 C.3     1  UNL1        0.1999
     44 O         138.4175  140.7519  155.0314 O.2     1  UNL1       -0.1542
     45 O         138.9441  138.9218  157.3493 O.2     1  UNL1       -0.1542
@<TRIPOS>BOND
     1    35    36    1
     2    36    37   am
     3    37    38    2
     4    37     1    1
     5     1     2   ar
     6     2    28    1
     7    28    29   ar
     8    29    30   ar
     9    30    31   ar
    10    31    32    1
    11    31    33   ar
    12    33    34   ar
    13     2     3   ar
    14     3     4   ar
    15     4     5   ar
    16     5     6   ar
    17     6    40    1
    18    40    41    1
    19    40    42    1
    20    42    43    1
    21    42    44    2
    22    42    45    2
    23     6     7   ar
    24     7    10    1
    25    10    11   ar
    26    11    12   ar
    27    12    13   ar
    28    13    14   ar
    29    14    15   ar
    30    14    16    1
    31    16    17   ar
    32    17    18   ar
    33    18    19   ar
    34    19    20    1
    35    19    21   ar
    36    21    22   ar
    37    22    23   ar
    38    23    24   ar
    39    24    25   ar
    40    25    26    1
    41    26    27    1
    42     7     8   ar
    43     8     9   ar
    44     9     1   ar
    45    34    28   ar
    46     9     4   ar
    47    15    10   ar
    48    25    16   ar
    49    27    13    1
    50    24    18   ar
    51    36    39    1
