@<TRIPOS>MOLECULE
*****
 40 43 0 0 0
SMALL
GASTEIGER

@<TRIPOS>ATOM
      1 C         144.7660  140.2117  164.3852 C.3     1  UNL1        0.1747
      2 N         143.8875  142.2234  162.9955 N.am    1  UNL1       -0.3018
      3 C         144.0206  140.7429  163.1968 C.2     1  UNL1        0.2425
      4 O         143.4085  139.7937  162.2098 O.2     1  UNL1       -0.2733
      5 H         144.2893  142.8464  163.6433 H       1  UNL1        0.1495
      6 N         142.0882  143.5059  160.1264 N.3     1  UNL1       -0.2711
      7 C         143.5089  143.1071  160.3959 C.3     1  UNL1        0.0933
      8 C         143.1422  142.7546  161.8071 C.3     1  UNL1        0.1035
      9 C         141.7215  143.1534  161.5375 C.3     1  UNL1        0.0933
     10 C         139.8521  145.0996  156.5612 C.3     1  UNL1        0.0992
     11 C         140.7519  146.0054  157.3485 C.3     1  UNL1        0.0125
     12 C         141.4972  145.4742  158.5369 C.3     1  UNL1        0.0165
     13 C         141.3428  144.0371  158.9380 C.3     1  UNL1        0.0576
     14 C         140.4431  143.1312  158.1507 C.3     1  UNL1        0.0165
     15 C         139.6978  143.6624  156.9624 C.3     1  UNL1        0.0125
     16 C         139.1068  145.6306  155.3729 C.2     1  UNL1        0.3164
     17 O         137.6491  145.3209  155.2020 O.2     1  UNL1       -0.2501
     18 O         139.8191  146.4716  154.3553 O.3     1  UNL1       -0.4485
     19 C         138.8683  148.6289  155.4470 C.3     1  UNL1        0.0513
     20 C         139.7877  147.9673  154.4637 C.3     1  UNL1        0.2086
     21 N         144.0949  139.2539  165.3246 N.pl3   1  UNL1       -0.3093
     22 H         144.5952  138.4868  165.6859 H       1  UNL1        0.1487
     23 C         142.6617  139.4649  165.7135 C.ar    1  UNL1        0.1500
     24 N         141.4670  138.8552  165.0420 N.ar    1  UNL1       -0.1542
     25 N         140.2385  139.3362  165.7557 N.ar    1  UNL1       -0.2409
     26 C         140.6739  140.2432  166.8683 C.ar    1  UNL1        0.0809
     27 C         139.9002  141.0068  167.9018 C.ar    1  UNL1        0.0188
     28 C         140.6241  141.8500  168.9092 C.ar    1  UNL1        0.0054
     29 C         142.1217  141.9296  168.8831 C.ar    1  UNL1        0.0716
     30 C         142.8955  141.1659  167.8496 C.ar    1  UNL1        0.0082
     31 C         142.1715  140.3227  166.8423 C.ar    1  UNL1        0.0503
     32 C         142.8457  142.7728  169.8906 C.3     1  UNL1        0.4186
     33 F         143.5695  143.6161  170.8980 F       1  UNL1       -0.1659
     34 F         144.0186  141.8399  169.8287 F       1  UNL1       -0.1659
     35 F         141.6727  143.7057  169.9525 F       1  UNL1       -0.1659
     36 C         138.8230  138.9739  165.4164 C.3     1  UNL1        0.2302
     37 C         138.1131  137.9091  166.1991 C.3     1  UNL1        0.4200
     38 F         137.4034  136.8443  166.9817 F       1  UNL1       -0.1679
     39 F         137.4087  138.9656  166.9975 F       1  UNL1       -0.1679
     40 F         138.8176  136.8527  165.4006 F       1  UNL1       -0.1679
@<TRIPOS>BOND
     1    19    20    1
     2    20    18    1
     3    18    16    1
     4    16    17    2
     5    10    16    1
     6    10    11    1
     7    11    12    1
     8    12    13    1
     9    13     6    1
    10     6     7    1
    11     7     8    1
    12     8     2    1
    13     2     3   am
    14     3     4    2
    15     3     1    1
    16     1    21    1
    17    21    23    1
    18    23    24   ar
    19    24    25   ar
    20    25    36    1
    21    36    37    1
    22    37    38    1
    23    37    39    1
    24    37    40    1
    25    25    26   ar
    26    26    27   ar
    27    27    28   ar
    28    28    29   ar
    29    29    32    1
    30    32    33    1
    31    32    34    1
    32    32    35    1
    33    29    30   ar
    34    30    31   ar
    35     8     9    1
    36    13    14    1
    37    14    15    1
    38    15    10    1
    39     9     6    1
    40    31    23   ar
    41    31    26   ar
    42     2     5    1
    43    21    22    1
@<TRIPOS>MOLECULE
*****
 40 43 0 0 0
SMALL
GASTEIGER

@<TRIPOS>ATOM
      1 C         137.7196  143.6868  162.9918 C.3     1  UNL1        0.1747
      2 N         139.4199  142.6627  161.3155 N.am    1  UNL1       -0.3018
      3 C         138.1519  142.5535  162.1093 C.2     1  UNL1        0.2425
      4 O         137.3162  141.3110  162.0207 O.2     1  UNL1       -0.2733
      5 H         139.9684  143.4782  161.3736 H       1  UNL1        0.1495
      6 N         140.4636  139.9268  159.1849 N.3     1  UNL1       -0.2711
      7 C         140.1844  141.3859  158.9772 C.3     1  UNL1        0.0933
      8 C         139.8522  141.5295  160.4330 C.3     1  UNL1        0.1035
      9 C         140.1314  140.0704  160.6406 C.3     1  UNL1        0.0933
     10 C         141.7606  136.5269  156.5375 C.3     1  UNL1        0.0992
     11 C         142.7101  137.0919  157.5520 C.3     1  UNL1        0.0125
     12 C         142.2778  138.2252  158.4344 C.3     1  UNL1        0.0165
     13 C         140.8960  138.7935  158.3024 C.3     1  UNL1        0.0576
     14 C         139.9464  138.2286  157.2879 C.3     1  UNL1        0.0165
     15 C         140.3787  137.0953  156.4055 C.3     1  UNL1        0.0125
     16 C         142.1928  135.3937  155.6550 C.2     1  UNL1        0.3164
     17 O         143.0196  135.6672  154.4337 O.2     1  UNL1       -0.2501
     18 O         141.7982  133.9867  155.9938 O.3     1  UNL1       -0.4485
     19 C         143.9209  133.5876  157.4378 C.3     1  UNL1        0.0513
     20 C         142.8041  133.0493  156.5934 C.3     1  UNL1        0.2086
     21 N         138.3078  143.8356  164.3637 N.pl3   1  UNL1       -0.3093
     22 H         137.8162  144.3295  165.0591 H       1  UNL1        0.1487
     23 C         139.6449  143.2318  164.6759 C.ar    1  UNL1        0.1500
     24 N         140.9656  143.9413  164.6273 N.ar    1  UNL1       -0.1542
     25 N         142.0330  142.9605  165.0130 N.ar    1  UNL1       -0.2409
     26 C         141.3720  141.6449  165.3000 C.ar    1  UNL1        0.0809
     27 C         141.9234  140.3160  165.7240 C.ar    1  UNL1        0.0188
     28 C         140.9988  139.1548  165.9398 C.ar    1  UNL1        0.0054
     29 C         139.5228  139.3225  165.7315 C.ar    1  UNL1        0.0716
     30 C         138.9714  140.6514  165.3074 C.ar    1  UNL1        0.0082
     31 C         139.8960  141.8126  165.0916 C.ar    1  UNL1        0.0503
     32 C         138.5982  138.1612  165.9473 C.3     1  UNL1        0.4186
     33 F         137.6737  136.9999  166.1631 F       1  UNL1       -0.1659
     34 F         137.6450  139.0565  166.6819 F       1  UNL1       -0.1659
     35 F         139.5514  137.2658  165.2127 F       1  UNL1       -0.1659
     36 C         143.5034  143.2453  165.0969 C.3     1  UNL1        0.2302
     37 C         144.4082  142.8576  163.9650 C.3     1  UNL1        0.4200
     38 F         145.3130  142.4700  162.8332 F       1  UNL1       -0.1679
     39 F         144.7915  141.6073  164.6997 F       1  UNL1       -0.1679
     40 F         144.0249  144.1079  163.2304 F       1  UNL1       -0.1679
@<TRIPOS>BOND
     1    19    20    1
     2    20    18    1
     3    18    16    1
     4    16    17    2
     5    10    16    1
     6    10    11    1
     7    11    12    1
     8    12    13    1
     9    13     6    1
    10     6     7    1
    11     7     8    1
    12     8     2    1
    13     2     3   am
    14     3     4    2
    15     3     1    1
    16     1    21    1
    17    21    23    1
    18    23    24   ar
    19    24    25   ar
    20    25    36    1
    21    36    37    1
    22    37    38    1
    23    37    39    1
    24    37    40    1
    25    25    26   ar
    26    26    27   ar
    27    27    28   ar
    28    28    29   ar
    29    29    32    1
    30    32    33    1
    31    32    34    1
    32    32    35    1
    33    29    30   ar
    34    30    31   ar
    35     8     9    1
    36    13    14    1
    37    14    15    1
    38    15    10    1
    39     9     6    1
    40    31    23   ar
    41    31    26   ar
    42     2     5    1
    43    21    22    1
@<TRIPOS>MOLECULE
*****
 40 43 0 0 0
SMALL
GASTEIGER

@<TRIPOS>ATOM
      1 C         142.9609  138.8142  159.0754 C.3     1  UNL1        0.1747
      2 N         141.3803  139.3311  161.0715 N.am    1  UNL1       -0.3018
      3 C         142.7389  138.9659  160.5511 C.2     1  UNL1        0.2425
      4 O         143.8755  138.7523  161.5064 O.2     1  UNL1       -0.2733
      5 H         140.6344  139.4712  160.4445 H       1  UNL1        0.1495
      6 N         140.8444  139.6971  164.6342 N.3     1  UNL1       -0.2711
      7 C         140.9833  138.5347  163.6964 C.3     1  UNL1        0.0933
      8 C         141.1584  139.4827  162.5472 C.3     1  UNL1        0.1035
      9 C         141.0195  140.6451  163.4850 C.3     1  UNL1        0.0933
     10 C         140.1785  140.1522  169.0613 C.3     1  UNL1        0.0992
     11 C         139.0154  139.8913  168.1509 C.3     1  UNL1        0.0125
     12 C         139.2373  139.7396  166.6751 C.3     1  UNL1        0.0165
     13 C         140.6224  139.8488  166.1099 C.3     1  UNL1        0.0576
     14 C         141.7856  140.1097  167.0204 C.3     1  UNL1        0.0165
     15 C         141.5637  140.2614  168.4960 C.3     1  UNL1        0.0125
     16 C         139.9567  140.3039  170.5370 C.2     1  UNL1        0.3164
     17 O         139.2876  139.2073  171.3116 O.2     1  UNL1       -0.2501
     18 O         140.4039  141.5522  171.2383 O.3     1  UNL1       -0.4485
     19 C         140.4359  143.6107  169.6534 C.3     1  UNL1        0.0513
     20 C         139.8488  142.8836  170.8267 C.3     1  UNL1        0.2086
     21 N         143.0506  137.4459  158.4671 N.pl3   1  UNL1       -0.3093
     22 H         143.5566  136.7360  158.9246 H       1  UNL1        0.1487
     23 C         142.3692  137.1592  157.1619 C.ar    1  UNL1        0.1500
     24 N         141.3911  138.0558  156.4624 N.ar    1  UNL1       -0.1542
     25 N         140.9637  137.3763  155.1952 N.ar    1  UNL1       -0.2409
     26 C         141.6777  136.0598  155.1117 C.ar    1  UNL1        0.0809
     27 C         141.6491  134.9658  154.0858 C.ar    1  UNL1        0.0188
     28 C         142.4892  133.7377  154.2754 C.ar    1  UNL1        0.0054
     29 C         143.3579  133.6036  155.4910 C.ar    1  UNL1        0.0716
     30 C         143.3864  134.6975  156.5168 C.ar    1  UNL1        0.0082
     31 C         142.5464  135.9256  156.3272 C.ar    1  UNL1        0.0503
     32 C         144.1979  132.3754  155.6806 C.3     1  UNL1        0.4186
     33 F         145.0380  131.1473  155.8702 F       1  UNL1       -0.1659
     34 F         143.6530  131.8056  154.4046 F       1  UNL1       -0.1659
     35 F         144.7429  132.9452  156.9566 F       1  UNL1       -0.1659
     36 C         139.9928  137.9182  154.1884 C.3     1  UNL1        0.2302
     37 C         138.5302  137.6105  154.3159 C.3     1  UNL1        0.4200
     38 F         137.0676  137.3029  154.4433 F       1  UNL1       -0.1679
     39 F         138.3890  138.7034  155.3336 F       1  UNL1       -0.1679
     40 F         138.6714  136.5177  153.2982 F       1  UNL1       -0.1679
@<TRIPOS>BOND
     1    19    20    1
     2    20    18    1
     3    18    16    1
     4    16    17    2
     5    10    16    1
     6    10    11    1
     7    11    12    1
     8    12    13    1
     9    13     6    1
    10     6     7    1
    11     7     8    1
    12     8     2    1
    13     2     3   am
    14     3     4    2
    15     3     1    1
    16     1    21    1
    17    21    23    1
    18    23    24   ar
    19    24    25   ar
    20    25    36    1
    21    36    37    1
    22    37    38    1
    23    37    39    1
    24    37    40    1
    25    25    26   ar
    26    26    27   ar
    27    27    28   ar
    28    28    29   ar
    29    29    32    1
    30    32    33    1
    31    32    34    1
    32    32    35    1
    33    29    30   ar
    34    30    31   ar
    35     8     9    1
    36    13    14    1
    37    14    15    1
    38    15    10    1
    39     9     6    1
    40    31    23   ar
    41    31    26   ar
    42     2     5    1
    43    21    22    1
@<TRIPOS>MOLECULE
*****
 40 43 0 0 0
SMALL
GASTEIGER

@<TRIPOS>ATOM
      1 C         139.5921  138.5457  158.0482 C.3     1  UNL1        0.1747
      2 N         138.9572  138.0448  160.5172 N.am    1  UNL1       -0.3018
      3 C         139.6550  138.9027  159.5038 C.2     1  UNL1        0.2425
      4 O         140.4158  140.1176  159.9458 O.2     1  UNL1       -0.2733
      5 H         138.4579  137.2475  160.2270 H       1  UNL1        0.1495
      6 N         139.1092  138.9068  164.0312 N.3     1  UNL1       -0.2711
      7 C         138.3316  139.4056  162.8494 C.3     1  UNL1        0.0933
      8 C         139.0202  138.4018  161.9727 C.3     1  UNL1        0.1035
      9 C         139.7977  137.9031  163.1545 C.3     1  UNL1        0.0933
     10 C         139.2980  139.9777  168.3978 C.3     1  UNL1        0.0992
     11 C         140.4109  140.3831  167.4773 C.3     1  UNL1        0.0125
     12 C         140.3479  140.0261  166.0218 C.3     1  UNL1        0.0165
     13 C         139.1721  139.2638  165.4867 C.3     1  UNL1        0.0576
     14 C         138.0593  138.8584  166.4072 C.3     1  UNL1        0.0165
     15 C         138.1222  139.2153  167.8626 C.3     1  UNL1        0.0125
     16 C         139.3609  140.3347  169.8533 C.2     1  UNL1        0.3164
     17 O         139.7794  139.3051  170.8607 O.2     1  UNL1       -0.2501
     18 O         139.0052  141.7213  170.3015 O.3     1  UNL1       -0.4485
     19 C         140.4466  143.8195  169.7819 C.3     1  UNL1        0.0513
     20 C         140.0871  142.6836  170.6932 C.3     1  UNL1        0.2086
     21 N         139.7731  139.6098  157.0065 N.pl3   1  UNL1       -0.3093
     22 H         140.6788  139.8926  156.7439 H       1  UNL1        0.1487
     23 C         138.5742  140.2429  156.3649 C.ar    1  UNL1        0.1500
     24 N         137.3568  139.5218  155.8669 N.ar    1  UNL1       -0.1542
     25 N         136.4124  140.5416  155.3029 N.ar    1  UNL1       -0.2409
     26 C         137.0460  141.8929  155.4522 C.ar    1  UNL1        0.0809
     27 C         136.5791  143.2676  155.0753 C.ar    1  UNL1        0.0188
     28 C         137.4482  144.4578  155.3548 C.ar    1  UNL1        0.0054
     29 C         138.7843  144.2732  156.0112 C.ar    1  UNL1        0.0716
     30 C         139.2513  142.8985  156.3880 C.ar    1  UNL1        0.0082
     31 C         138.3821  141.7084  156.1086 C.ar    1  UNL1        0.0503
     32 C         139.6534  145.4634  156.2906 C.3     1  UNL1        0.4186
     33 F         140.5225  146.6536  156.5701 F       1  UNL1       -0.1659
     34 F         138.5714  146.3719  155.7869 F       1  UNL1       -0.1659
     35 F         140.7355  144.5549  156.7944 F       1  UNL1       -0.1659
     36 C         135.0699  140.2595  154.6960 C.3     1  UNL1        0.2302
     37 C         133.8248  140.7689  155.3597 C.3     1  UNL1        0.4200
     38 F         132.5798  141.2782  156.0233 F       1  UNL1       -0.1679
     39 F         134.3177  140.2539  156.6795 F       1  UNL1       -0.1679
     40 F         133.3320  141.2838  154.0399 F       1  UNL1       -0.1679
@<TRIPOS>BOND
     1    19    20    1
     2    20    18    1
     3    18    16    1
     4    16    17    2
     5    10    16    1
     6    10    11    1
     7    11    12    1
     8    12    13    1
     9    13     6    1
    10     6     7    1
    11     7     8    1
    12     8     2    1
    13     2     3   am
    14     3     4    2
    15     3     1    1
    16     1    21    1
    17    21    23    1
    18    23    24   ar
    19    24    25   ar
    20    25    36    1
    21    36    37    1
    22    37    38    1
    23    37    39    1
    24    37    40    1
    25    25    26   ar
    26    26    27   ar
    27    27    28   ar
    28    28    29   ar
    29    29    32    1
    30    32    33    1
    31    32    34    1
    32    32    35    1
    33    29    30   ar
    34    30    31   ar
    35     8     9    1
    36    13    14    1
    37    14    15    1
    38    15    10    1
    39     9     6    1
    40    31    23   ar
    41    31    26   ar
    42     2     5    1
    43    21    22    1
@<TRIPOS>MOLECULE
*****
 40 43 0 0 0
SMALL
GASTEIGER

@<TRIPOS>ATOM
      1 C         144.5191  139.7419  164.5654 C.3     1  UNL1        0.1747
      2 N         144.4831  138.6100  162.2272 N.am    1  UNL1       -0.3018
      3 C         143.9253  139.6120  163.1941 C.2     1  UNL1        0.2425
      4 O         142.7737  140.4840  162.7898 O.2     1  UNL1       -0.2733
      5 H         145.2389  138.0377  162.4926 H       1  UNL1        0.1495
      6 N         143.0495  138.2964  158.9165 N.3     1  UNL1       -0.2711
      7 C         143.8033  139.3667  159.6489 C.3     1  UNL1        0.0933
      8 C         143.8892  138.4801  160.8559 C.3     1  UNL1        0.1035
      9 C         143.1354  137.4100  160.1235 C.3     1  UNL1        0.0933
     10 C         141.2680  137.9067  154.8026 C.3     1  UNL1        0.0992
     11 C         142.1515  136.8217  155.3432 C.3     1  UNL1        0.0125
     12 C         142.7454  136.9516  156.7145 C.3     1  UNL1        0.0165
     13 C         142.4556  138.1665  157.5452 C.3     1  UNL1        0.0576
     14 C         141.5721  139.2515  157.0046 C.3     1  UNL1        0.0165
     15 C         140.9783  139.1216  155.6334 C.3     1  UNL1        0.0125
     16 C         140.6741  137.7769  153.4313 C.2     1  UNL1        0.3164
     17 O         141.4436  137.0894  152.3427 O.2     1  UNL1       -0.2501
     18 O         139.3106  138.3346  153.1487 O.3     1  UNL1       -0.4485
     19 C         136.8761  137.7049  153.8020 C.3     1  UNL1        0.0513
     20 C         138.1321  137.4135  153.0355 C.3     1  UNL1        0.2086
     21 N         143.8906  139.0284  165.7256 N.pl3   1  UNL1       -0.3093
     22 H         144.4052  138.3553  166.2269 H       1  UNL1        0.1487
     23 C         142.4779  139.3404  166.1219 C.ar    1  UNL1        0.1500
     24 N         141.2404  138.7547  165.5092 N.ar    1  UNL1       -0.1542
     25 N         140.0525  139.3453  166.2092 N.ar    1  UNL1       -0.2409
     26 C         140.5558  140.2960  167.2545 C.ar    1  UNL1        0.0809
     27 C         139.8428  141.1641  168.2485 C.ar    1  UNL1        0.0188
     28 C         140.6288  142.0291  169.1886 C.ar    1  UNL1        0.0054
     29 C         142.1279  142.0261  169.1347 C.ar    1  UNL1        0.0716
     30 C         142.8409  141.1581  168.1407 C.ar    1  UNL1        0.0082
     31 C         142.0548  140.2930  167.2006 C.ar    1  UNL1        0.0503
     32 C         142.9139  142.8912  170.0749 C.3     1  UNL1        0.4186
     33 F         143.6999  143.7563  171.0150 F       1  UNL1       -0.1659
     34 F         144.0914  141.9725  169.9358 F       1  UNL1       -0.1659
     35 F         141.7364  143.8099  170.2139 F       1  UNL1       -0.1659
     36 C         138.6138  139.0390  165.9154 C.3     1  UNL1        0.2302
     37 C         137.9488  137.8634  166.5682 C.3     1  UNL1        0.4200
     38 F         137.2839  136.6879  167.2208 F       1  UNL1       -0.1679
     39 F         137.4196  138.7616  167.6466 F       1  UNL1       -0.1679
     40 F         138.4781  136.9652  165.4897 F       1  UNL1       -0.1679
@<TRIPOS>BOND
     1    19    20    1
     2    20    18    1
     3    18    16    1
     4    16    17    2
     5    10    16    1
     6    10    11    1
     7    11    12    1
     8    12    13    1
     9    13     6    1
    10     6     7    1
    11     7     8    1
    12     8     2    1
    13     2     3   am
    14     3     4    2
    15     3     1    1
    16     1    21    1
    17    21    23    1
    18    23    24   ar
    19    24    25   ar
    20    25    36    1
    21    36    37    1
    22    37    38    1
    23    37    39    1
    24    37    40    1
    25    25    26   ar
    26    26    27   ar
    27    27    28   ar
    28    28    29   ar
    29    29    32    1
    30    32    33    1
    31    32    34    1
    32    32    35    1
    33    29    30   ar
    34    30    31   ar
    35     8     9    1
    36    13    14    1
    37    14    15    1
    38    15    10    1
    39     9     6    1
    40    31    23   ar
    41    31    26   ar
    42     2     5    1
    43    21    22    1
@<TRIPOS>MOLECULE
*****
 40 43 0 0 0
SMALL
GASTEIGER

@<TRIPOS>ATOM
      1 C         145.2280  141.9198  163.1452 C.3     1  UNL1        0.1747
      2 N         144.3832  139.8095  161.8871 N.am    1  UNL1       -0.3018
      3 C         144.6725  141.2812  161.9068 C.2     1  UNL1        0.2425
      4 O         144.4062  142.1142  160.6882 O.2     1  UNL1       -0.2733
      5 H         144.5580  139.2627  162.6870 H       1  UNL1        0.1495
      6 N         143.0420  138.2678  158.8974 N.3     1  UNL1       -0.2711
      7 C         143.6453  139.6019  159.2236 C.3     1  UNL1        0.0933
      8 C         143.8277  139.1709  160.6488 C.3     1  UNL1        0.1035
      9 C         143.2244  137.8369  160.3225 C.3     1  UNL1        0.0933
     10 C         141.3753  136.3520  155.1823 C.3     1  UNL1        0.0992
     11 C         140.4649  137.0896  156.1188 C.3     1  UNL1        0.0125
     12 C         141.0205  137.7282  157.3571 C.3     1  UNL1        0.0165
     13 C         142.4864  137.6292  157.6590 C.3     1  UNL1        0.0576
     14 C         143.3968  136.8916  156.7225 C.3     1  UNL1        0.0165
     15 C         142.8413  136.2530  155.4842 C.3     1  UNL1        0.0125
     16 C         140.8199  135.7134  153.9439 C.2     1  UNL1        0.3164
     17 O         139.6106  136.2980  153.2763 O.2     1  UNL1       -0.2501
     18 O         141.4739  134.4900  153.3731 O.3     1  UNL1       -0.4485
     19 C         141.6805  132.7318  155.2746 C.3     1  UNL1        0.0513
     20 C         141.1492  133.1362  153.9314 C.3     1  UNL1        0.2086
     21 N         144.5793  143.1482  163.7112 N.pl3   1  UNL1       -0.3093
     22 H         145.1057  143.9711  163.8331 H       1  UNL1        0.1487
     23 C         143.1285  143.1226  164.0916 C.ar    1  UNL1        0.1500
     24 N         141.9793  143.5156  163.2114 N.ar    1  UNL1       -0.1542
     25 N         140.7128  143.3354  163.9947 N.ar    1  UNL1       -0.2409
     26 C         141.0794  142.8311  165.3590 C.ar    1  UNL1        0.0809
     27 C         140.2466  142.4747  166.5546 C.ar    1  UNL1        0.0188
     28 C         140.9068  141.9867  167.8099 C.ar    1  UNL1        0.0054
     29 C         142.3998  141.8552  167.8698 C.ar    1  UNL1        0.0716
     30 C         143.2326  142.2116  166.6742 C.ar    1  UNL1        0.0082
     31 C         142.5724  142.6996  165.4189 C.ar    1  UNL1        0.0503
     32 C         143.0600  141.3672  169.1252 C.3     1  UNL1        0.4186
     33 F         143.7202  140.8792  170.3806 F       1  UNL1       -0.1659
     34 F         142.0779  140.2360  169.2021 F       1  UNL1       -0.1659
     35 F         144.0421  142.4983  169.0483 F       1  UNL1       -0.1659
     36 C         139.3237  143.6111  163.5006 C.3     1  UNL1        0.2302
     37 C         138.2795  144.1261  164.4465 C.3     1  UNL1        0.4200
     38 F         137.2354  144.6410  165.3924 F       1  UNL1       -0.1679
     39 F         139.1505  145.3048  164.7662 F       1  UNL1       -0.1679
     40 F         137.4086  142.9475  164.1268 F       1  UNL1       -0.1679
@<TRIPOS>BOND
     1    19    20    1
     2    20    18    1
     3    18    16    1
     4    16    17    2
     5    10    16    1
     6    10    11    1
     7    11    12    1
     8    12    13    1
     9    13     6    1
    10     6     7    1
    11     7     8    1
    12     8     2    1
    13     2     3   am
    14     3     4    2
    15     3     1    1
    16     1    21    1
    17    21    23    1
    18    23    24   ar
    19    24    25   ar
    20    25    36    1
    21    36    37    1
    22    37    38    1
    23    37    39    1
    24    37    40    1
    25    25    26   ar
    26    26    27   ar
    27    27    28   ar
    28    28    29   ar
    29    29    32    1
    30    32    33    1
    31    32    34    1
    32    32    35    1
    33    29    30   ar
    34    30    31   ar
    35     8     9    1
    36    13    14    1
    37    14    15    1
    38    15    10    1
    39     9     6    1
    40    31    23   ar
    41    31    26   ar
    42     2     5    1
    43    21    22    1
@<TRIPOS>MOLECULE
*****
 40 43 0 0 0
SMALL
GASTEIGER

@<TRIPOS>ATOM
      1 C         144.6932  139.7018  164.5813 C.3     1  UNL1        0.1747
      2 N         144.1031  140.3929  162.1474 N.am    1  UNL1       -0.3018
      3 C         143.9987  140.6260  163.6255 C.2     1  UNL1        0.2425
      4 O         143.1998  141.7832  164.1478 O.2     1  UNL1       -0.2733
      5 H         144.6274  139.6334  161.8047 H       1  UNL1        0.1495
      6 N         142.4263  142.6241  159.8399 N.3     1  UNL1       -0.2711
      7 C         141.9932  141.4951  160.7275 C.3     1  UNL1        0.0933
      8 C         143.4086  141.3171  161.1916 C.3     1  UNL1        0.1035
      9 C         143.8415  142.4461  160.3040 C.3     1  UNL1        0.0933
     10 C         140.3428  145.3966  156.9724 C.3     1  UNL1        0.0992
     11 C         141.0071  144.1519  156.4632 C.3     1  UNL1        0.0125
     12 C         141.7016  143.2277  157.4190 C.3     1  UNL1        0.0165
     13 C         141.7318  143.5482  158.8841 C.3     1  UNL1        0.0576
     14 C         141.0674  144.7929  159.3933 C.3     1  UNL1        0.0165
     15 C         140.3730  145.7171  158.4376 C.3     1  UNL1        0.0125
     16 C         139.6483  146.3208  156.0168 C.2     1  UNL1        0.3164
     17 O         139.5349  145.9537  154.5668 O.2     1  UNL1       -0.2501
     18 O         139.0671  147.6123  156.5110 O.3     1  UNL1       -0.4485
     19 C         138.3731  150.0752  156.0606 C.3     1  UNL1        0.0513
     20 C         138.7986  148.7310  155.5485 C.3     1  UNL1        0.2086
     21 N         143.9004  138.6942  165.3601 N.pl3   1  UNL1       -0.3093
     22 H         144.1471  137.7417  165.3269 H       1  UNL1        0.1487
     23 C         142.7319  139.1378  166.1893 C.ar    1  UNL1        0.1500
     24 N         142.7933  139.6435  167.6002 N.ar    1  UNL1       -0.1542
     25 N         141.3961  139.9719  168.0360 N.ar    1  UNL1       -0.2409
     26 C         140.4712  139.6692  166.8946 C.ar    1  UNL1        0.0809
     27 C         138.9839  139.7964  166.7470 C.ar    1  UNL1        0.0188
     28 C         138.3222  139.4081  165.4581 C.ar    1  UNL1        0.0054
     29 C         139.1478  138.8927  164.3168 C.ar    1  UNL1        0.0716
     30 C         140.6350  138.7655  164.4643 C.ar    1  UNL1        0.0082
     31 C         141.2967  139.1538  165.7532 C.ar    1  UNL1        0.0503
     32 C         138.4860  138.5044  163.0278 C.3     1  UNL1        0.4186
     33 F         137.8242  138.1161  161.7389 F       1  UNL1       -0.1659
     34 F         139.2486  137.2127  163.0253 F       1  UNL1       -0.1659
     35 F         137.7235  139.7960  163.0302 F       1  UNL1       -0.1659
     36 C         140.9943  140.5087  169.3778 C.3     1  UNL1        0.2302
     37 C         140.4301  141.8939  169.4932 C.3     1  UNL1        0.4200
     38 F         139.8659  143.2789  169.6085 F       1  UNL1       -0.1679
     39 F         139.0968  141.3193  169.8702 F       1  UNL1       -0.1679
     40 F         141.7634  142.4683  169.1161 F       1  UNL1       -0.1679
@<TRIPOS>BOND
     1    19    20    1
     2    20    18    1
     3    18    16    1
     4    16    17    2
     5    10    16    1
     6    10    11    1
     7    11    12    1
     8    12    13    1
     9    13     6    1
    10     6     7    1
    11     7     8    1
    12     8     2    1
    13     2     3   am
    14     3     4    2
    15     3     1    1
    16     1    21    1
    17    21    23    1
    18    23    24   ar
    19    24    25   ar
    20    25    36    1
    21    36    37    1
    22    37    38    1
    23    37    39    1
    24    37    40    1
    25    25    26   ar
    26    26    27   ar
    27    27    28   ar
    28    28    29   ar
    29    29    32    1
    30    32    33    1
    31    32    34    1
    32    32    35    1
    33    29    30   ar
    34    30    31   ar
    35     8     9    1
    36    13    14    1
    37    14    15    1
    38    15    10    1
    39     9     6    1
    40    31    23   ar
    41    31    26   ar
    42     2     5    1
    43    21    22    1
@<TRIPOS>MOLECULE
*****
 40 43 0 0 0
SMALL
GASTEIGER

@<TRIPOS>ATOM
      1 C         144.0623  141.6010  163.1860 C.3     1  UNL1        0.1747
      2 N         144.0282  139.5387  161.6063 N.am    1  UNL1       -0.3018
      3 C         143.5988  140.9410  161.9212 C.2     1  UNL1        0.2425
      4 O         142.7061  141.6833  160.9716 O.2     1  UNL1       -0.2733
      5 H         144.6141  139.0515  162.2296 H       1  UNL1        0.1495
      6 N         142.9092  137.9455  158.5527 N.3     1  UNL1       -0.2711
      7 C         143.3975  139.3164  158.9164 C.3     1  UNL1        0.0933
      8 C         143.5647  138.8788  160.3415 C.3     1  UNL1        0.1035
      9 C         143.0764  137.5080  159.9777 C.3     1  UNL1        0.0933
     10 C         141.5188  135.9656  154.7584 C.3     1  UNL1        0.0992
     11 C         140.5763  136.8301  155.5422 C.3     1  UNL1        0.0125
     12 C         141.0398  137.4900  156.8070 C.3     1  UNL1        0.0165
     13 C         142.4458  137.2856  157.2880 C.3     1  UNL1        0.0576
     14 C         143.3883  136.4211  156.5042 C.3     1  UNL1        0.0165
     15 C         142.9249  135.7612  155.2395 C.3     1  UNL1        0.0125
     16 C         141.0555  135.3056  153.4937 C.2     1  UNL1        0.3164
     17 O         139.8489  135.8295  152.7727 O.2     1  UNL1       -0.2501
     18 O         141.7988  134.1216  152.9498 O.3     1  UNL1       -0.4485
     19 C         141.3757  132.2819  154.7348 C.3     1  UNL1        0.0513
     20 C         141.3585  132.7322  153.3041 C.3     1  UNL1        0.2086
     21 N         143.9047  140.8964  164.5009 N.pl3   1  UNL1       -0.3093
     22 H         144.6988  140.5708  164.9832 H       1  UNL1        0.1487
     23 C         142.5371  140.6881  165.0810 C.ar    1  UNL1        0.1500
     24 N         141.3912  139.9914  164.4090 N.ar    1  UNL1       -0.1542
     25 N         140.2213  140.0126  165.3475 N.ar    1  UNL1       -0.2409
     26 C         140.6441  140.7223  166.5995 C.ar    1  UNL1        0.0809
     27 C         139.9108  141.0424  167.8682 C.ar    1  UNL1        0.0188
     28 C         140.6088  141.7800  168.9722 C.ar    1  UNL1        0.0054
     29 C         142.0400  142.1975  168.8074 C.ar    1  UNL1        0.0716
     30 C         142.7734  141.8774  167.5387 C.ar    1  UNL1        0.0082
     31 C         142.0754  141.1398  166.4347 C.ar    1  UNL1        0.0503
     32 C         142.7380  142.9351  169.9115 C.3     1  UNL1        0.4186
     33 F         143.4359  143.6727  171.0155 F       1  UNL1       -0.1659
     34 F         143.9137  142.0124  169.7848 F       1  UNL1       -0.1659
     35 F         141.5622  143.8578  170.0382 F       1  UNL1       -0.1659
     36 C         138.8664  139.4268  165.0809 C.3     1  UNL1        0.2302
     37 C         138.4318  138.1840  165.7999 C.3     1  UNL1        0.4200
     38 F         137.9973  136.9414  166.5189 F       1  UNL1       -0.1679
     39 F         137.4832  138.9964  166.6306 F       1  UNL1       -0.1679
     40 F         139.3805  137.3718  164.9692 F       1  UNL1       -0.1679
@<TRIPOS>BOND
     1    19    20    1
     2    20    18    1
     3    18    16    1
     4    16    17    2
     5    10    16    1
     6    10    11    1
     7    11    12    1
     8    12    13    1
     9    13     6    1
    10     6     7    1
    11     7     8    1
    12     8     2    1
    13     2     3   am
    14     3     4    2
    15     3     1    1
    16     1    21    1
    17    21    23    1
    18    23    24   ar
    19    24    25   ar
    20    25    36    1
    21    36    37    1
    22    37    38    1
    23    37    39    1
    24    37    40    1
    25    25    26   ar
    26    26    27   ar
    27    27    28   ar
    28    28    29   ar
    29    29    32    1
    30    32    33    1
    31    32    34    1
    32    32    35    1
    33    29    30   ar
    34    30    31   ar
    35     8     9    1
    36    13    14    1
    37    14    15    1
    38    15    10    1
    39     9     6    1
    40    31    23   ar
    41    31    26   ar
    42     2     5    1
    43    21    22    1
@<TRIPOS>MOLECULE
*****
 40 43 0 0 0
SMALL
GASTEIGER

@<TRIPOS>ATOM
      1 C         144.5444  139.6288  164.4596 C.3     1  UNL1        0.1747
      2 N         144.4944  139.4778  161.8664 N.am    1  UNL1       -0.3018
      3 C         143.9214  139.1022  163.2008 C.2     1  UNL1        0.2425
      4 O         142.7254  138.2001  163.2764 O.2     1  UNL1       -0.2733
      5 H         145.2794  140.0699  161.8169 H       1  UNL1        0.1495
      6 N         142.9903  138.2064  158.8274 N.3     1  UNL1       -0.2711
      7 C         143.2650  137.6441  160.1906 C.3     1  UNL1        0.0933
      8 C         143.8714  138.9512  160.6076 C.3     1  UNL1        0.1035
      9 C         143.5967  139.5135  159.2445 C.3     1  UNL1        0.0933
     10 C         141.1213  136.6266  155.0510 C.3     1  UNL1        0.0992
     11 C         140.2650  137.2786  156.0958 C.3     1  UNL1        0.0125
     12 C         140.8880  137.8052  157.3546 C.3     1  UNL1        0.0165
     13 C         142.3673  137.6798  157.5686 C.3     1  UNL1        0.0576
     14 C         143.2237  137.0279  156.5238 C.3     1  UNL1        0.0165
     15 C         142.6008  136.5013  155.2651 C.3     1  UNL1        0.0125
     16 C         140.4985  136.1000  153.7922 C.2     1  UNL1        0.3164
     17 O         139.1632  136.6155  153.3435 O.2     1  UNL1       -0.2501
     18 O         141.2109  135.0578  152.9820 O.3     1  UNL1       -0.4485
     19 C         142.5209  132.9861  153.8435 C.3     1  UNL1        0.0513
     20 C         141.2269  133.6306  153.4432 C.3     1  UNL1        0.2086
     21 N         143.6831  140.2461  165.5213 N.pl3   1  UNL1       -0.3093
     22 H         143.8929  140.0999  166.4720 H       1  UNL1        0.1487
     23 C         142.5021  141.0861  165.1345 C.ar    1  UNL1        0.1500
     24 N         142.5539  142.4842  164.5934 N.ar    1  UNL1       -0.1542
     25 N         141.1458  142.9376  164.3454 N.ar    1  UNL1       -0.2409
     26 C         140.2237  141.8199  164.7333 C.ar    1  UNL1        0.0809
     27 C         138.7291  141.6962  164.7053 C.ar    1  UNL1        0.0188
     28 C         138.0728  140.4282  165.1651 C.ar    1  UNL1        0.0054
     29 C         138.9110  139.2839  165.6529 C.ar    1  UNL1        0.0716
     30 C         140.4056  139.4076  165.6808 C.ar    1  UNL1        0.0082
     31 C         141.0620  140.6756  165.2210 C.ar    1  UNL1        0.0503
     32 C         138.2546  138.0159  166.1127 C.3     1  UNL1        0.4186
     33 F         137.5983  136.7480  166.5724 F       1  UNL1       -0.1659
     34 F         137.3494  138.8091  167.0079 F       1  UNL1       -0.1659
     35 F         139.1599  137.2228  165.2175 F       1  UNL1       -0.1659
     36 C         140.7322  144.2742  163.8045 C.3     1  UNL1        0.2302
     37 C         140.0894  144.3699  162.4525 C.3     1  UNL1        0.4200
     38 F         139.4467  144.4656  161.1006 F       1  UNL1       -0.1679
     39 F         138.9950  145.2158  163.0327 F       1  UNL1       -0.1679
     40 F         141.1839  143.5240  161.8724 F       1  UNL1       -0.1679
@<TRIPOS>BOND
     1    19    20    1
     2    20    18    1
     3    18    16    1
     4    16    17    2
     5    10    16    1
     6    10    11    1
     7    11    12    1
     8    12    13    1
     9    13     6    1
    10     6     7    1
    11     7     8    1
    12     8     2    1
    13     2     3   am
    14     3     4    2
    15     3     1    1
    16     1    21    1
    17    21    23    1
    18    23    24   ar
    19    24    25   ar
    20    25    36    1
    21    36    37    1
    22    37    38    1
    23    37    39    1
    24    37    40    1
    25    25    26   ar
    26    26    27   ar
    27    27    28   ar
    28    28    29   ar
    29    29    32    1
    30    32    33    1
    31    32    34    1
    32    32    35    1
    33    29    30   ar
    34    30    31   ar
    35     8     9    1
    36    13    14    1
    37    14    15    1
    38    15    10    1
    39     9     6    1
    40    31    23   ar
    41    31    26   ar
    42     2     5    1
    43    21    22    1
