@<TRIPOS>MOLECULE
*****
 35 38 0 0 0
SMALL
GASTEIGER

@<TRIPOS>ATOM
      1 C         139.9714  143.2118  158.9487 C.2     1  UNL1        0.1522
      2 N         139.0193  143.1638  157.7905 N.am    1  UNL1       -0.1543
      3 C         138.1286  141.9706  157.9719 C.2     1  UNL1        0.2766
      4 O         137.0293  141.5421  157.0457 O.2     1  UNL1       -0.2674
      5 C         138.5301  141.2812  159.2422 C.2     1  UNL1        0.0887
      6 C         137.9029  140.0422  159.8091 C.2     1  UNL1        0.0308
      7 S         139.6691  142.0483  159.8458 S.3     1  UNL1       -0.0511
      8 C         138.4138  139.4643  161.0956 C.ar    1  UNL1        0.0890
      9 C         139.2448  138.2235  161.2361 C.ar    1  UNL1        0.0560
     10 S         139.5281  138.0180  162.6948 S.2     1  UNL1       -0.0659
     11 C         138.8720  139.1319  163.4557 C.ar    1  UNL1        0.1107
     12 N         138.1834  140.0257  162.4673 N.ar    1  UNL1       -0.2383
     13 C         138.8998  139.3190  164.9437 C.ar    1  UNL1        0.0240
     14 C         139.8471  140.3068  165.5578 C.ar    1  UNL1        0.0051
     15 C         139.8749  140.4939  167.0458 C.ar    1  UNL1        0.0372
     16 C         138.9554  139.6934  167.9198 C.ar    1  UNL1        0.1468
     17 C         138.0082  138.7057  167.3057 C.ar    1  UNL1        0.0372
     18 C         137.9804  138.5186  165.8176 C.ar    1  UNL1        0.0051
     19 O         138.9833  139.8806  169.4078 O.3     1  UNL1       -0.4045
     20 C         140.1208  140.6179  170.0498 C.3     1  UNL1        0.5753
     21 F         141.2583  141.3553  170.6919 F       1  UNL1       -0.1328
     22 F         140.9469  139.3662  170.0237 F       1  UNL1       -0.1328
     23 F         139.2947  141.8696  170.0759 F       1  UNL1       -0.1328
     24 N         141.0384  144.2424  159.1707 N.pl3   1  UNL1       -0.3129
     25 H         141.8717  144.2087  158.6475 H       1  UNL1        0.1486
     26 C         140.8358  145.3244  160.1896 C.3     1  UNL1        0.1156
     27 C         138.8108  144.7726  165.5222 C.3     1  UNL1        0.0896
     28 N         139.5657  144.8619  164.2291 N.3     1  UNL1       -0.2713
     29 C         138.8411  145.1968  162.9592 C.3     1  UNL1        0.0746
     30 C         139.5960  145.2861  161.6661 C.3     1  UNL1        0.0460
     31 C         141.0755  145.0405  161.6428 C.3     1  UNL1        0.1089
     32 O         142.4719  144.8934  161.1149 O.3     1  UNL1       -0.3850
     33 C         141.8002  144.7055  162.9127 C.3     1  UNL1        0.0460
     34 C         141.0452  144.6162  164.2058 C.3     1  UNL1        0.0746
     35 H         142.4743  145.0533  160.1582 H       1  UNL1        0.2103
@<TRIPOS>BOND
     1    27    28    1
     2    28    29    1
     3    29    30    1
     4    30    31    1
     5    31    32    1
     6    31    26    1
     7    26    24    1
     8    24     1    1
     9     1     2    2
    10     2     3    1
    11     3     4    2
    12     3     5    1
    13     5     6    2
    14     6     8    1
    15     8     9   ar
    16     9    10   ar
    17    10    11   ar
    18    11    13    1
    19    13    14   ar
    20    14    15   ar
    21    15    16   ar
    22    16    19    1
    23    19    20    1
    24    20    21    1
    25    20    22    1
    26    20    23    1
    27    16    17   ar
    28    17    18   ar
    29    11    12   ar
    30     5     7    1
    31    31    33    1
    32    33    34    1
    33    34    28    1
    34     7     1    1
    35    12     8   ar
    36    18    13   ar
    37    32    35    1
    38    24    25    1
@<TRIPOS>MOLECULE
*****
 35 38 0 0 0
SMALL
GASTEIGER

@<TRIPOS>ATOM
      1 C         139.1045  143.0263  160.1279 C.2     1  UNL1        0.1522
      2 N         138.4565  142.5523  158.8608 N.am    1  UNL1       -0.1543
      3 C         137.9992  141.1397  159.0745 C.2     1  UNL1        0.2766
      4 O         137.2994  140.2775  158.0661 O.2     1  UNL1       -0.2674
      5 C         138.3646  140.7408  160.4735 C.2     1  UNL1        0.0887
      6 C         138.0944  139.4096  161.1098 C.2     1  UNL1        0.0308
      7 S         139.0478  141.9068  161.1246 S.3     1  UNL1       -0.0511
      8 C         138.5205  139.1545  162.5252 C.ar    1  UNL1        0.0890
      9 C         138.8172  137.8137  163.1286 C.ar    1  UNL1        0.0560
     10 S         139.2047  138.0259  164.5621 S.2     1  UNL1       -0.0659
     11 C         139.1475  139.4980  164.8445 C.ar    1  UNL1        0.1107
     12 N         138.7246  140.1955  163.5857 N.ar    1  UNL1       -0.2383
     13 C         139.4586  140.1569  166.1557 C.ar    1  UNL1        0.0240
     14 C         139.0042  139.5260  167.4385 C.ar    1  UNL1        0.0051
     15 C         139.3153  140.1849  168.7497 C.ar    1  UNL1        0.0372
     16 C         140.0807  141.4746  168.7781 C.ar    1  UNL1        0.1468
     17 C         140.5351  142.1054  167.4953 C.ar    1  UNL1        0.0372
     18 C         140.2240  141.4465  166.1841 C.ar    1  UNL1        0.0051
     19 O         140.3918  142.1334  170.0893 O.3     1  UNL1       -0.4045
     20 C         141.6879  142.8660  170.2718 C.3     1  UNL1        0.5753
     21 F         142.9840  143.5986  170.4543 F       1  UNL1       -0.1328
     22 F         142.3810  141.5676  170.5616 F       1  UNL1       -0.1328
     23 F         140.9949  144.1643  169.9820 F       1  UNL1       -0.1328
     24 N         139.7040  144.3819  160.3578 N.pl3   1  UNL1       -0.3129
     25 H         139.1220  145.1736  160.4186 H       1  UNL1        0.1486
     26 C         141.1902  144.5313  160.4951 C.3     1  UNL1        0.1156
     27 C         144.9003  142.5070  164.3654 C.3     1  UNL1        0.0896
     28 N         143.8713  143.2085  163.5293 N.3     1  UNL1       -0.2713
     29 C         143.5793  142.7270  162.1391 C.3     1  UNL1        0.0746
     30 C         142.5503  143.4286  161.3030 C.3     1  UNL1        0.0460
     31 C         141.8133  144.6117  161.8572 C.3     1  UNL1        0.1089
     32 O         140.8599  145.7669  161.9383 O.3     1  UNL1       -0.3850
     33 C         142.1053  145.0932  163.2474 C.3     1  UNL1        0.0460
     34 C         143.1343  144.3916  164.0835 C.3     1  UNL1        0.0746
     35 H         140.3711  145.8420  161.1038 H       1  UNL1        0.2103
@<TRIPOS>BOND
     1    27    28    1
     2    28    29    1
     3    29    30    1
     4    30    31    1
     5    31    32    1
     6    31    26    1
     7    26    24    1
     8    24     1    1
     9     1     2    2
    10     2     3    1
    11     3     4    2
    12     3     5    1
    13     5     6    2
    14     6     8    1
    15     8     9   ar
    16     9    10   ar
    17    10    11   ar
    18    11    13    1
    19    13    14   ar
    20    14    15   ar
    21    15    16   ar
    22    16    19    1
    23    19    20    1
    24    20    21    1
    25    20    22    1
    26    20    23    1
    27    16    17   ar
    28    17    18   ar
    29    11    12   ar
    30     5     7    1
    31    31    33    1
    32    33    34    1
    33    34    28    1
    34     7     1    1
    35    12     8   ar
    36    18    13   ar
    37    32    35    1
    38    24    25    1
@<TRIPOS>MOLECULE
*****
 35 38 0 0 0
SMALL
GASTEIGER

@<TRIPOS>ATOM
      1 C         142.8534  142.5392  159.5111 C.2     1  UNL1        0.1522
      2 N         143.6943  141.8924  158.4505 N.am    1  UNL1       -0.1543
      3 C         143.3735  140.4272  158.4342 C.2     1  UNL1        0.2766
      4 O         143.9845  139.4009  157.5268 O.2     1  UNL1       -0.2674
      5 C         142.3344  140.1685  159.4846 C.2     1  UNL1        0.0887
      6 C         141.7239  138.8380  159.8120 C.2     1  UNL1        0.0308
      7 S         142.0130  141.4738  160.1502 S.3     1  UNL1       -0.0511
      8 C         140.6905  138.7330  160.8941 C.ar    1  UNL1        0.0890
      9 C         139.2823  138.2450  160.7240 C.ar    1  UNL1        0.0560
     10 S         138.6052  138.3079  162.0611 S.2     1  UNL1       -0.0659
     11 C         139.5950  138.8347  163.0575 C.ar    1  UNL1        0.1107
     12 N         140.8837  139.0974  162.3362 N.ar    1  UNL1       -0.2383
     13 C         139.3407  139.0594  164.5186 C.ar    1  UNL1        0.0240
     14 C         138.5720  138.0437  165.3109 C.ar    1  UNL1        0.0051
     15 C         138.3177  138.2683  166.7720 C.ar    1  UNL1        0.0372
     16 C         138.8319  139.5086  167.4408 C.ar    1  UNL1        0.1468
     17 C         139.6005  140.5242  166.6486 C.ar    1  UNL1        0.0372
     18 C         139.8549  140.2996  165.1874 C.ar    1  UNL1        0.0051
     19 O         138.5775  139.7332  168.9020 O.3     1  UNL1       -0.4045
     20 C         139.6203  140.3973  169.7515 C.3     1  UNL1        0.5753
     21 F         140.6630  141.0613  170.6009 F       1  UNL1       -0.1328
     22 F         140.6376  139.3997  169.2825 F       1  UNL1       -0.1328
     23 F         138.6030  141.3948  170.2204 F       1  UNL1       -0.1328
     24 N         142.8532  143.9957  159.8695 N.pl3   1  UNL1       -0.3129
     25 H         143.6774  144.5259  159.7753 H       1  UNL1        0.1486
     26 C         141.5974  144.6444  160.3714 C.3     1  UNL1        0.1156
     27 C         137.9719  144.2296  164.7902 C.3     1  UNL1        0.0896
     28 N         139.0937  144.3979  163.8088 N.3     1  UNL1       -0.2713
     29 C         138.8471  144.1870  162.3444 C.3     1  UNL1        0.0746
     30 C         139.9689  144.3553  161.3630 C.3     1  UNL1        0.0460
     31 C         141.3374  144.7346  161.8460 C.3     1  UNL1        0.1089
     32 O         142.7962  145.0826  161.8169 O.3     1  UNL1       -0.3850
     33 C         141.5840  144.9456  163.3104 C.3     1  UNL1        0.0460
     34 C         140.4622  144.7773  164.2918 C.3     1  UNL1        0.0746
     35 H         143.1148  145.0644  160.9009 H       1  UNL1        0.2103
@<TRIPOS>BOND
     1    27    28    1
     2    28    29    1
     3    29    30    1
     4    30    31    1
     5    31    32    1
     6    31    26    1
     7    26    24    1
     8    24     1    1
     9     1     2    2
    10     2     3    1
    11     3     4    2
    12     3     5    1
    13     5     6    2
    14     6     8    1
    15     8     9   ar
    16     9    10   ar
    17    10    11   ar
    18    11    13    1
    19    13    14   ar
    20    14    15   ar
    21    15    16   ar
    22    16    19    1
    23    19    20    1
    24    20    21    1
    25    20    22    1
    26    20    23    1
    27    16    17   ar
    28    17    18   ar
    29    11    12   ar
    30     5     7    1
    31    31    33    1
    32    33    34    1
    33    34    28    1
    34     7     1    1
    35    12     8   ar
    36    18    13   ar
    37    32    35    1
    38    24    25    1
@<TRIPOS>MOLECULE
*****
 35 38 0 0 0
SMALL
GASTEIGER

@<TRIPOS>ATOM
      1 C         140.1727  139.0246  159.6655 C.2     1  UNL1        0.1522
      2 N         140.8082  138.4093  158.4540 N.am    1  UNL1       -0.1543
      3 C         142.2956  138.5461  158.5909 C.2     1  UNL1        0.2766
      4 O         143.3195  138.0672  157.6049 O.2     1  UNL1       -0.2674
      5 C         142.5794  139.2461  159.8869 C.2     1  UNL1        0.0887
      6 C         143.9369  139.5899  160.4243 C.2     1  UNL1        0.0308
      7 S         141.2673  139.5418  160.5510 S.3     1  UNL1       -0.0511
      8 C         144.0653  140.2947  161.7422 C.ar    1  UNL1        0.0890
      9 C         144.8754  141.5292  162.0066 C.ar    1  UNL1        0.0560
     10 S         144.7169  141.8863  163.4548 S.2     1  UNL1       -0.0659
     11 C         143.8089  140.8725  164.0855 C.ar    1  UNL1        0.1107
     12 N         143.4062  139.8889  163.0270 N.ar    1  UNL1       -0.2383
     13 C         143.3790  140.8469  165.5224 C.ar    1  UNL1        0.0240
     14 C         143.0419  139.5421  166.1812 C.ar    1  UNL1        0.0051
     15 C         142.6120  139.5165  167.6180 C.ar    1  UNL1        0.0372
     16 C         142.5193  140.7956  168.3961 C.ar    1  UNL1        0.1468
     17 C         142.8564  142.1003  167.7373 C.ar    1  UNL1        0.0372
     18 C         143.2863  142.1259  166.3005 C.ar    1  UNL1        0.0051
     19 O         142.0894  140.7698  169.8330 O.3     1  UNL1       -0.4045
     20 C         140.6789  140.4029  170.1874 C.3     1  UNL1        0.5753
     21 F         139.2683  140.0360  170.5419 F       1  UNL1       -0.1328
     22 F         141.1397  139.0394  170.6097 F       1  UNL1       -0.1328
     23 F         140.2181  141.7664  169.7651 F       1  UNL1       -0.1328
     24 N         138.7009  139.1081  159.9426 N.pl3   1  UNL1       -0.3129
     25 H         138.0989  139.5244  159.2842 H       1  UNL1        0.1486
     26 C         138.1463  138.5573  161.2228 C.3     1  UNL1        0.1156
     27 C         139.0289  139.4436  166.8154 C.3     1  UNL1        0.0896
     28 N         138.6941  139.4427  165.3533 N.3     1  UNL1       -0.2713
     29 C         139.0363  138.2530  164.5063 C.3     1  UNL1        0.0746
     30 C         138.7015  138.2520  163.0441 C.3     1  UNL1        0.0460
     31 C         138.0245  139.4408  162.4289 C.3     1  UNL1        0.1089
     32 O         137.3898  140.3228  161.3949 O.3     1  UNL1       -0.3850
     33 C         137.6824  140.6305  163.2759 C.3     1  UNL1        0.0460
     34 C         138.0172  140.6315  164.7381 C.3     1  UNL1        0.0746
     35 H         137.3966  139.8711  160.5365 H       1  UNL1        0.2103
@<TRIPOS>BOND
     1    27    28    1
     2    28    29    1
     3    29    30    1
     4    30    31    1
     5    31    32    1
     6    31    26    1
     7    26    24    1
     8    24     1    1
     9     1     2    2
    10     2     3    1
    11     3     4    2
    12     3     5    1
    13     5     6    2
    14     6     8    1
    15     8     9   ar
    16     9    10   ar
    17    10    11   ar
    18    11    13    1
    19    13    14   ar
    20    14    15   ar
    21    15    16   ar
    22    16    19    1
    23    19    20    1
    24    20    21    1
    25    20    22    1
    26    20    23    1
    27    16    17   ar
    28    17    18   ar
    29    11    12   ar
    30     5     7    1
    31    31    33    1
    32    33    34    1
    33    34    28    1
    34     7     1    1
    35    12     8   ar
    36    18    13   ar
    37    32    35    1
    38    24    25    1
@<TRIPOS>MOLECULE
*****
 35 38 0 0 0
SMALL
GASTEIGER

@<TRIPOS>ATOM
      1 C         141.6193  142.2039  159.5068 C.2     1  UNL1        0.1522
      2 N         142.5350  141.7441  158.4112 N.am    1  UNL1       -0.1543
      3 C         143.1747  140.4603  158.8501 C.2     1  UNL1        0.2766
      4 O         144.1615  139.6520  158.0609 O.2     1  UNL1       -0.2674
      5 C         142.6544  140.1267  160.2169 C.2     1  UNL1        0.0887
      6 C         143.0295  138.9262  161.0342 C.2     1  UNL1        0.0308
      7 S         141.6930  141.2043  160.6227 S.3     1  UNL1       -0.0511
      8 C         142.4240  138.7242  162.3917 C.ar    1  UNL1        0.0890
      9 C         141.6616  137.5148  162.8459 C.ar    1  UNL1        0.0560
     10 S         141.2410  137.7392  164.2681 S.2     1  UNL1       -0.0659
     11 C         141.7435  139.0872  164.6929 C.ar    1  UNL1        0.1107
     12 N         142.4746  139.6959  163.5332 N.ar    1  UNL1       -0.2383
     13 C         141.5489  139.7161  166.0407 C.ar    1  UNL1        0.0240
     14 C         140.2450  140.3759  166.3793 C.ar    1  UNL1        0.0051
     15 C         140.0505  141.0048  167.7272 C.ar    1  UNL1        0.0372
     16 C         141.1597  140.9738  168.7365 C.ar    1  UNL1        0.1468
     17 C         142.4635  140.3139  168.3979 C.ar    1  UNL1        0.0372
     18 C         142.6581  139.6851  167.0500 C.ar    1  UNL1        0.0051
     19 O         140.9651  141.6026  170.0843 O.3     1  UNL1       -0.4045
     20 C         140.5559  143.0420  170.1884 C.3     1  UNL1        0.5753
     21 F         140.1468  144.4813  170.2924 F       1  UNL1       -0.1328
     22 F         139.1739  142.6200  170.5907 F       1  UNL1       -0.1328
     23 F         141.9380  143.4639  169.7860 F       1  UNL1       -0.1328
     24 N         140.7776  143.4453  159.4893 N.pl3   1  UNL1       -0.3129
     25 H         139.9041  143.4415  159.0352 H       1  UNL1        0.1486
     26 C         141.2667  144.6927  160.1637 C.3     1  UNL1        0.1156
     27 C         138.6009  144.8260  165.2349 C.3     1  UNL1        0.0896
     28 N         139.5120  144.8036  164.0435 N.3     1  UNL1       -0.2713
     29 C         138.9364  144.7265  162.6606 C.3     1  UNL1        0.0746
     30 C         139.8474  144.7041  161.4692 C.3     1  UNL1        0.0460
     31 C         141.3341  144.7587  161.6607 C.3     1  UNL1        0.1089
     32 O         142.7974  144.7905  161.3324 O.3     1  UNL1       -0.3850
     33 C         141.9097  144.8359  163.0437 C.3     1  UNL1        0.0460
     34 C         140.9986  144.8583  164.2351 C.3     1  UNL1        0.0746
     35 H         142.9138  144.7530  160.3702 H       1  UNL1        0.2103
@<TRIPOS>BOND
     1    27    28    1
     2    28    29    1
     3    29    30    1
     4    30    31    1
     5    31    32    1
     6    31    26    1
     7    26    24    1
     8    24     1    1
     9     1     2    2
    10     2     3    1
    11     3     4    2
    12     3     5    1
    13     5     6    2
    14     6     8    1
    15     8     9   ar
    16     9    10   ar
    17    10    11   ar
    18    11    13    1
    19    13    14   ar
    20    14    15   ar
    21    15    16   ar
    22    16    19    1
    23    19    20    1
    24    20    21    1
    25    20    22    1
    26    20    23    1
    27    16    17   ar
    28    17    18   ar
    29    11    12   ar
    30     5     7    1
    31    31    33    1
    32    33    34    1
    33    34    28    1
    34     7     1    1
    35    12     8   ar
    36    18    13   ar
    37    32    35    1
    38    24    25    1
@<TRIPOS>MOLECULE
*****
 35 38 0 0 0
SMALL
GASTEIGER

@<TRIPOS>ATOM
      1 C         140.0646  139.2323  159.7591 C.2     1  UNL1        0.1522
      2 N         140.6760  138.4699  158.6211 N.am    1  UNL1       -0.1543
      3 C         142.1492  138.3550  158.8787 C.2     1  UNL1        0.2766
      4 O         143.1480  137.6691  157.9944 O.2     1  UNL1       -0.2674
      5 C         142.4483  139.0464  160.1758 C.2     1  UNL1        0.0887
      6 C         143.7987  139.1733  160.8163 C.2     1  UNL1        0.0308
      7 S         141.1599  139.5886  160.7199 S.3     1  UNL1       -0.0511
      8 C         143.9444  139.8970  162.1221 C.ar    1  UNL1        0.0890
      9 C         144.8077  141.0977  162.3730 C.ar    1  UNL1        0.0560
     10 S         144.6493  141.4900  163.8121 S.2     1  UNL1       -0.0659
     11 C         143.6880  140.5316  164.4506 C.ar    1  UNL1        0.1107
     12 N         143.2524  139.5471  163.4060 N.ar    1  UNL1       -0.2383
     13 C         143.2409  140.5539  165.8822 C.ar    1  UNL1        0.0240
     14 C         142.9984  141.8637  166.5719 C.ar    1  UNL1        0.0051
     15 C         142.5513  141.8860  168.0035 C.ar    1  UNL1        0.0372
     16 C         142.3467  140.5985  168.7456 C.ar    1  UNL1        0.1468
     17 C         142.5893  139.2887  168.0559 C.ar    1  UNL1        0.0372
     18 C         143.0364  139.2664  166.6243 C.ar    1  UNL1        0.0051
     19 O         141.8996  140.6209  170.1772 O.3     1  UNL1       -0.4045
     20 C         140.9602  141.6891  170.6530 C.3     1  UNL1        0.5753
     21 F         140.0209  142.7574  171.1288 F       1  UNL1       -0.1328
     22 F         139.8557  141.0791  169.8419 F       1  UNL1       -0.1328
     23 F         142.0648  142.2991  171.4641 F       1  UNL1       -0.1328
     24 N         138.6127  139.5778  159.9096 N.pl3   1  UNL1       -0.3129
     25 H         137.9260  138.8835  159.7843 H       1  UNL1        0.1486
     26 C         138.2070  140.9809  160.2512 C.3     1  UNL1        0.1156
     27 C         138.7352  144.6796  164.5965 C.3     1  UNL1        0.0896
     28 N         138.4645  143.5710  163.6231 N.3     1  UNL1       -0.2713
     29 C         138.9910  143.6585  162.2213 C.3     1  UNL1        0.0746
     30 C         138.7204  142.5499  161.2478 C.3     1  UNL1        0.0460
     31 C         137.9231  141.3537  161.6761 C.3     1  UNL1        0.1089
     32 O         137.2244  140.0280  161.6096 O.3     1  UNL1       -0.3850
     33 C         137.3966  141.2662  163.0779 C.3     1  UNL1        0.0460
     34 C         137.6673  142.3748  164.0514 C.3     1  UNL1        0.0746
     35 H         137.3247  139.6539  160.7202 H       1  UNL1        0.2103
@<TRIPOS>BOND
     1    27    28    1
     2    28    29    1
     3    29    30    1
     4    30    31    1
     5    31    32    1
     6    31    26    1
     7    26    24    1
     8    24     1    1
     9     1     2    2
    10     2     3    1
    11     3     4    2
    12     3     5    1
    13     5     6    2
    14     6     8    1
    15     8     9   ar
    16     9    10   ar
    17    10    11   ar
    18    11    13    1
    19    13    14   ar
    20    14    15   ar
    21    15    16   ar
    22    16    19    1
    23    19    20    1
    24    20    21    1
    25    20    22    1
    26    20    23    1
    27    16    17   ar
    28    17    18   ar
    29    11    12   ar
    30     5     7    1
    31    31    33    1
    32    33    34    1
    33    34    28    1
    34     7     1    1
    35    12     8   ar
    36    18    13   ar
    37    32    35    1
    38    24    25    1
@<TRIPOS>MOLECULE
*****
 35 38 0 0 0
SMALL
GASTEIGER

@<TRIPOS>ATOM
      1 C         141.2214  143.3496  159.6702 C.2     1  UNL1        0.1522
      2 N         140.3624  143.6873  158.4877 N.am    1  UNL1       -0.1543
      3 C         139.1323  142.8310  158.5488 C.2     1  UNL1        0.2766
      4 O         138.0020  142.8400  157.5629 O.2     1  UNL1       -0.2674
      5 C         139.2311  141.9642  159.7691 C.2     1  UNL1        0.0887
      6 C         138.2168  140.9543  160.2175 C.2     1  UNL1        0.0308
      7 S         140.5222  142.2847  160.4621 S.3     1  UNL1       -0.0511
      8 C         138.4535  140.1569  161.4657 C.ar    1  UNL1        0.0890
      9 C         138.7213  138.6825  161.5325 C.ar    1  UNL1        0.0560
     10 S         138.8974  138.3082  162.9744 S.2     1  UNL1       -0.0659
     11 C         138.7385  139.5514  163.7987 C.ar    1  UNL1        0.1107
     12 N         138.4642  140.6938  162.8662 N.ar    1  UNL1       -0.2383
     13 C         138.8366  139.6369  165.2930 C.ar    1  UNL1        0.0240
     14 C         139.8708  140.5191  165.9274 C.ar    1  UNL1        0.0051
     15 C         139.9689  140.6046  167.4218 C.ar    1  UNL1        0.0372
     16 C         139.0330  139.8080  168.2817 C.ar    1  UNL1        0.1468
     17 C         137.9989  138.9259  167.6474 C.ar    1  UNL1        0.0372
     18 C         137.9008  138.8403  166.1530 C.ar    1  UNL1        0.0051
     19 O         139.1313  139.8936  169.7761 O.3     1  UNL1       -0.4045
     20 C         140.3401  140.5113  170.4141 C.3     1  UNL1        0.5753
     21 F         141.5490  141.1289  171.0521 F       1  UNL1       -0.1328
     22 F         141.0694  139.2059  170.2960 F       1  UNL1       -0.1328
     23 F         139.6108  141.8167  170.5322 F       1  UNL1       -0.1328
     24 N         142.5469  143.9683  160.0023 N.pl3   1  UNL1       -0.3129
     25 H         142.6540  144.9466  159.9754 H       1  UNL1        0.1486
     26 C         143.7091  143.0966  160.3755 C.3     1  UNL1        0.1156
     27 C         145.0756  139.3921  164.5290 C.3     1  UNL1        0.0896
     28 N         144.7197  140.5357  163.6259 N.3     1  UNL1       -0.2713
     29 C         144.5062  140.2960  162.1607 C.3     1  UNL1        0.0746
     30 C         144.1504  141.4395  161.2576 C.3     1  UNL1        0.0460
     31 C         144.0081  142.8229  161.8197 C.3     1  UNL1        0.1089
     32 O         143.7620  144.3014  161.8803 O.3     1  UNL1       -0.3850
     33 C         144.2216  143.0627  163.2849 C.3     1  UNL1        0.0460
     34 C         144.5775  141.9191  164.1880 C.3     1  UNL1        0.0746
     35 H         143.5503  144.6305  160.9927 H       1  UNL1        0.2103
@<TRIPOS>BOND
     1    27    28    1
     2    28    29    1
     3    29    30    1
     4    30    31    1
     5    31    32    1
     6    31    26    1
     7    26    24    1
     8    24     1    1
     9     1     2    2
    10     2     3    1
    11     3     4    2
    12     3     5    1
    13     5     6    2
    14     6     8    1
    15     8     9   ar
    16     9    10   ar
    17    10    11   ar
    18    11    13    1
    19    13    14   ar
    20    14    15   ar
    21    15    16   ar
    22    16    19    1
    23    19    20    1
    24    20    21    1
    25    20    22    1
    26    20    23    1
    27    16    17   ar
    28    17    18   ar
    29    11    12   ar
    30     5     7    1
    31    31    33    1
    32    33    34    1
    33    34    28    1
    34     7     1    1
    35    12     8   ar
    36    18    13   ar
    37    32    35    1
    38    24    25    1
@<TRIPOS>MOLECULE
*****
 35 38 0 0 0
SMALL
GASTEIGER

@<TRIPOS>ATOM
      1 C         139.0398  142.1424  158.6591 C.2     1  UNL1        0.1522
      2 N         138.9663  143.2704  157.6731 N.am    1  UNL1       -0.1543
      3 C         139.9114  144.3438  158.1256 C.2     1  UNL1        0.2766
      4 O         140.1561  145.6521  157.4340 O.2     1  UNL1       -0.2674
      5 C         140.5689  143.8791  159.3913 C.2     1  UNL1        0.0887
      6 C         141.5864  144.6411  160.1874 C.2     1  UNL1        0.0308
      7 S         140.0301  142.5185  159.7210 S.3     1  UNL1       -0.0511
      8 C         142.1587  144.0452  161.4394 C.ar    1  UNL1        0.0890
      9 C         143.5397  143.4810  161.5958 C.ar    1  UNL1        0.0560
     10 S         143.6851  142.9959  163.0078 S.2     1  UNL1       -0.0659
     11 C         142.3938  143.2604  163.7240 C.ar    1  UNL1        0.1107
     12 N         141.4506  143.9089  162.7546 N.ar    1  UNL1       -0.2383
     13 C         142.0980  142.9338  165.1578 C.ar    1  UNL1        0.0240
     14 C         143.1980  142.4617  166.0618 C.ar    1  UNL1        0.0051
     15 C         142.9021  142.1350  167.4956 C.ar    1  UNL1        0.0372
     16 C         141.5063  142.2804  168.0254 C.ar    1  UNL1        0.1468
     17 C         140.4063  142.7525  167.1213 C.ar    1  UNL1        0.0372
     18 C         140.7022  143.0791  165.6875 C.ar    1  UNL1        0.0051
     19 O         141.2105  141.9537  169.4592 O.3     1  UNL1       -0.4045
     20 C         140.2415  142.7952  170.2357 C.3     1  UNL1        0.5753
     21 F         139.2725  143.6367  171.0122 F       1  UNL1       -0.1328
     22 F         141.1913  143.9540  170.1652 F       1  UNL1       -0.1328
     23 F         139.2917  141.6364  170.3061 F       1  UNL1       -0.1328
     24 N         138.2596  140.8629  158.5945 N.pl3   1  UNL1       -0.3129
     25 H         137.3233  140.8720  158.2903 H       1  UNL1        0.1486
     26 C         138.9060  139.5694  158.9932 C.3     1  UNL1        0.1156
     27 C         140.9974  137.0699  163.7071 C.3     1  UNL1        0.0896
     28 N         140.2278  137.7184  162.5948 N.3     1  UNL1       -0.2713
     29 C         140.9300  138.1195  161.3314 C.3     1  UNL1        0.0746
     30 C         140.1604  138.7680  160.2191 C.3     1  UNL1        0.0460
     31 C         138.6887  139.0155  160.3702 C.3     1  UNL1        0.1089
     32 O         137.2924  139.4554  160.0431 O.3     1  UNL1       -0.3850
     33 C         137.9866  138.6145  161.6336 C.3     1  UNL1        0.0460
     34 C         138.7562  137.9660  162.7459 C.3     1  UNL1        0.0746
     35 H         137.2761  139.8458  159.1553 H       1  UNL1        0.2103
@<TRIPOS>BOND
     1    27    28    1
     2    28    29    1
     3    29    30    1
     4    30    31    1
     5    31    32    1
     6    31    26    1
     7    26    24    1
     8    24     1    1
     9     1     2    2
    10     2     3    1
    11     3     4    2
    12     3     5    1
    13     5     6    2
    14     6     8    1
    15     8     9   ar
    16     9    10   ar
    17    10    11   ar
    18    11    13    1
    19    13    14   ar
    20    14    15   ar
    21    15    16   ar
    22    16    19    1
    23    19    20    1
    24    20    21    1
    25    20    22    1
    26    20    23    1
    27    16    17   ar
    28    17    18   ar
    29    11    12   ar
    30     5     7    1
    31    31    33    1
    32    33    34    1
    33    34    28    1
    34     7     1    1
    35    12     8   ar
    36    18    13   ar
    37    32    35    1
    38    24    25    1
@<TRIPOS>MOLECULE
*****
 35 38 0 0 0
SMALL
GASTEIGER

@<TRIPOS>ATOM
      1 C         140.7452  139.8751  158.5104 C.2     1  UNL1        0.1522
      2 N         139.5994  140.1608  157.5854 N.am    1  UNL1       -0.1543
      3 C         138.3352  140.1369  158.3924 C.2     1  UNL1        0.2766
      4 O         136.9498  140.3722  157.8679 O.2     1  UNL1       -0.2674
      5 C         138.6997  139.8364  159.8161 C.2     1  UNL1        0.0887
      6 C         137.7428  139.7185  160.9651 C.2     1  UNL1        0.0308
      7 S         140.1892  139.6746  159.8890 S.3     1  UNL1       -0.0511
      8 C         138.2566  139.4120  162.3407 C.ar    1  UNL1        0.0890
      9 C         138.6182  138.0537  162.8644 C.ar    1  UNL1        0.0560
     10 S         139.0842  138.2123  164.2814 S.2     1  UNL1       -0.0659
     11 C         139.0106  139.6686  164.6333 C.ar    1  UNL1        0.1107
     12 N         138.4991  140.4100  163.4339 N.ar    1  UNL1       -0.2383
     13 C         139.3830  140.2766  165.9530 C.ar    1  UNL1        0.0240
     14 C         139.0636  139.5544  167.2284 C.ar    1  UNL1        0.0051
     15 C         139.4360  140.1624  168.5481 C.ar    1  UNL1        0.0372
     16 C         140.1279  141.4926  168.5925 C.ar    1  UNL1        0.1468
     17 C         140.4474  142.2147  167.3172 C.ar    1  UNL1        0.0372
     18 C         140.0749  141.6067  165.9975 C.ar    1  UNL1        0.0051
     19 O         140.5004  142.1005  169.9122 O.3     1  UNL1       -0.4045
     20 C         141.8563  142.7140  170.0995 C.3     1  UNL1        0.5753
     21 F         143.2122  143.3274  170.2867 F       1  UNL1       -0.1328
     22 F         142.4650  141.3452  170.1763 F       1  UNL1       -0.1328
     23 F         141.2476  144.0827  170.0227 F       1  UNL1       -0.1328
     24 N         142.1928  139.8026  158.1243 N.pl3   1  UNL1       -0.3129
     25 H         142.4557  139.8956  157.1801 H       1  UNL1        0.1486
     26 C         143.2399  139.5883  159.1767 C.3     1  UNL1        0.1156
     27 C         145.5405  141.8968  163.8906 C.3     1  UNL1        0.0896
     28 N         144.9781  141.5197  162.5521 N.3     1  UNL1       -0.2713
     29 C         144.4510  140.1342  162.3233 C.3     1  UNL1        0.0746
     30 C         143.8886  139.7572  160.9849 C.3     1  UNL1        0.0460
     31 C         143.8533  140.7657  159.8751 C.3     1  UNL1        0.1089
     32 O         143.6049  141.3654  158.5228 O.3     1  UNL1       -0.3850
     33 C         144.3804  142.1512  160.1039 C.3     1  UNL1        0.0460
     34 C         144.9428  142.5283  161.4423 C.3     1  UNL1        0.0746
     35 H         143.1984  140.7013  157.9443 H       1  UNL1        0.2103
@<TRIPOS>BOND
     1    27    28    1
     2    28    29    1
     3    29    30    1
     4    30    31    1
     5    31    32    1
     6    31    26    1
     7    26    24    1
     8    24     1    1
     9     1     2    2
    10     2     3    1
    11     3     4    2
    12     3     5    1
    13     5     6    2
    14     6     8    1
    15     8     9   ar
    16     9    10   ar
    17    10    11   ar
    18    11    13    1
    19    13    14   ar
    20    14    15   ar
    21    15    16   ar
    22    16    19    1
    23    19    20    1
    24    20    21    1
    25    20    22    1
    26    20    23    1
    27    16    17   ar
    28    17    18   ar
    29    11    12   ar
    30     5     7    1
    31    31    33    1
    32    33    34    1
    33    34    28    1
    34     7     1    1
    35    12     8   ar
    36    18    13   ar
    37    32    35    1
    38    24    25    1
