@<TRIPOS>MOLECULE
*****
 29 33 0 0 0
SMALL
GASTEIGER

@<TRIPOS>ATOM
      1 N         139.4892  139.8020  168.1329 N.ar    1  UNL1       -0.2503
      2 N         138.1536  139.1391  168.2960 N.ar    1  UNL1       -0.1680
      3 C         137.7003  138.6712  166.9449 C.ar    1  UNL1        0.1174
      4 C         138.7558  139.0449  165.9467 C.ar    1  UNL1        0.0188
      5 C         139.8615  139.7437  166.6810 C.ar    1  UNL1        0.1099
      6 C         141.0643  140.2368  165.9327 C.2     1  UNL1        0.1899
      7 O         142.1699  140.9356  166.6669 O.2     1  UNL1       -0.2898
      8 C         141.1616  140.0309  164.4500 C.3     1  UNL1        0.0712
      9 C         140.0559  139.3321  163.7157 C.3     1  UNL1        0.0148
     10 C         141.2588  139.8251  162.9674 C.3     1  UNL1        0.0223
     11 C         141.3560  139.6193  161.4848 C.3     1  UNL1        0.0937
     12 N         140.2503  138.9204  160.7505 N.am    1  UNL1       -0.2763
     13 C         140.3476  138.7146  159.2678 C.2     1  UNL1        0.2469
     14 O         139.2420  138.0157  158.5336 O.2     1  UNL1       -0.2702
     15 C         139.0475  138.4274  161.4988 C.3     1  UNL1        0.0937
     16 C         138.9503  138.6332  162.9814 C.3     1  UNL1        0.0223
     17 C         138.8530  138.8390  164.4641 C.3     1  UNL1        0.0301
     18 C         141.5504  139.2076  158.5195 C.2     1  UNL1        0.0564
     19 C         142.5711  138.2317  158.0138 C.2     1  UNL1        0.0994
     20 N         143.7740  138.7248  157.2654 N.2     1  UNL1       -0.2428
     21 C         143.9562  140.1938  157.0228 C.2     1  UNL1        0.0967
     22 C         145.0321  140.9696  156.3224 C.2     1  UNL1        0.0409
     23 C         144.6764  142.4249  156.3953 C.2     1  UNL1        0.1001
     24 N         143.3806  142.5486  157.1407 N.2     1  UNL1       -0.2463
     25 C         142.9355  141.1697  157.5286 C.2     1  UNL1        0.0812
     26 C         141.7327  140.6767  158.2769 C.3     1  UNL1        0.0798
     27 C         141.3868  139.6146  169.8976 C.3     1  UNL1        0.0263
     28 C         140.3088  140.4154  169.2293 C.3     1  UNL1        0.1054
     29 C         140.0504  141.8296  169.6573 C.3     1  UNL1        0.0263
@<TRIPOS>BOND
     1    27    28    1
     2    28    29    1
     3    28     1    1
     4     1     2   ar
     5     2     3   ar
     6     3     4   ar
     7     4     5   ar
     8     5     6    1
     9     6     7    2
    10     6     8    1
    11     8     9    1
    12     9    10    1
    13    10    11    1
    14    11    12    1
    15    12    13   am
    16    13    14    2
    17    13    18    1
    18    18    19    2
    19    19    20    1
    20    20    21    2
    21    21    22    1
    22    22    23    2
    23    23    24    1
    24    24    25    2
    25    25    26    1
    26    12    15    1
    27    15    16    1
    28     9    17    1
    29     5     1   ar
    30    16     9    1
    31    17     4    1
    32    26    18    1
    33    25    21    1
@<TRIPOS>MOLECULE
*****
 29 33 0 0 0
SMALL
GASTEIGER

@<TRIPOS>ATOM
      1 N         139.3968  140.0617  168.0241 N.ar    1  UNL1       -0.2503
      2 N         138.2848  139.0750  168.2241 N.ar    1  UNL1       -0.1680
      3 C         137.6750  138.7863  166.8844 C.ar    1  UNL1        0.1174
      4 C         138.4100  139.5945  165.8565 C.ar    1  UNL1        0.0188
      5 C         139.4742  140.3828  166.5609 C.ar    1  UNL1        0.1099
      6 C         140.3761  141.2910  165.7790 C.2     1  UNL1        0.1899
      7 O         141.4403  142.0793  166.4834 O.2     1  UNL1       -0.2898
      8 C         140.2140  141.4110  164.2926 C.3     1  UNL1        0.0712
      9 C         139.1498  140.6227  163.5882 C.3     1  UNL1        0.0148
     10 C         140.0518  141.5310  162.8062 C.3     1  UNL1        0.0223
     11 C         139.8896  141.6509  161.3199 C.3     1  UNL1        0.0937
     12 N         138.8254  140.8626  160.6155 N.am    1  UNL1       -0.2763
     13 C         138.6633  140.9826  159.1291 C.2     1  UNL1        0.2469
     14 O         137.5991  140.1943  158.4247 O.2     1  UNL1       -0.2702
     15 C         137.9235  139.9544  161.3974 C.3     1  UNL1        0.0937
     16 C         138.0857  139.8344  162.8838 C.3     1  UNL1        0.0223
     17 C         138.2478  139.7144  164.3702 C.3     1  UNL1        0.0301
     18 C         139.5652  141.8909  158.3471 C.2     1  UNL1        0.0564
     19 C         140.8199  141.3503  157.7278 C.2     1  UNL1        0.0994
     20 N         141.7219  142.2587  156.9458 N.2     1  UNL1       -0.2428
     21 C         141.3692  143.7075  156.7832 C.2     1  UNL1        0.0967
     22 C         142.0584  144.8348  156.0731 C.2     1  UNL1        0.0409
     23 C         141.2298  146.0720  156.2536 C.2     1  UNL1        0.1001
     24 N         140.0284  145.7094  157.0752 N.2     1  UNL1       -0.2463
     25 C         140.1145  144.2481  157.4025 C.2     1  UNL1        0.0812
     26 C         139.2125  143.3398  158.1845 C.3     1  UNL1        0.0798
     27 C         139.9213  141.9317  169.7499 C.3     1  UNL1        0.0263
     28 C         140.2769  140.6280  169.0987 C.3     1  UNL1        0.1054
     29 C         141.5126  139.8907  169.5222 C.3     1  UNL1        0.0263
@<TRIPOS>BOND
     1    27    28    1
     2    28    29    1
     3    28     1    1
     4     1     2   ar
     5     2     3   ar
     6     3     4   ar
     7     4     5   ar
     8     5     6    1
     9     6     7    2
    10     6     8    1
    11     8     9    1
    12     9    10    1
    13    10    11    1
    14    11    12    1
    15    12    13   am
    16    13    14    2
    17    13    18    1
    18    18    19    2
    19    19    20    1
    20    20    21    2
    21    21    22    1
    22    22    23    2
    23    23    24    1
    24    24    25    2
    25    25    26    1
    26    12    15    1
    27    15    16    1
    28     9    17    1
    29     5     1   ar
    30    16     9    1
    31    17     4    1
    32    26    18    1
    33    25    21    1
@<TRIPOS>MOLECULE
*****
 29 33 0 0 0
SMALL
GASTEIGER

@<TRIPOS>ATOM
      1 N         139.6335  144.0604  157.5163 N.ar    1  UNL1       -0.2503
      2 N         138.4483  143.3550  156.9269 N.ar    1  UNL1       -0.1680
      3 C         137.9070  142.4139  157.9620 C.ar    1  UNL1        0.1174
      4 C         138.7578  142.5378  159.1912 C.ar    1  UNL1        0.0188
      5 C         139.8249  143.5554  158.9157 C.ar    1  UNL1        0.1099
      6 C         140.8328  143.8906  159.9748 C.2     1  UNL1        0.1899
      7 O         141.8999  144.9082  159.6993 O.2     1  UNL1       -0.2898
      8 C         140.7738  143.2083  161.3093 C.3     1  UNL1        0.0712
      9 C         139.7067  142.1906  161.5848 C.3     1  UNL1        0.0148
     10 C         140.7147  142.5259  162.6438 C.3     1  UNL1        0.0223
     11 C         140.6556  141.8435  163.9782 C.3     1  UNL1        0.0937
     12 N         139.5885  140.8259  164.2537 N.am    1  UNL1       -0.2763
     13 C         139.5295  140.1435  165.5882 C.2     1  UNL1        0.2469
     14 O         138.4624  139.1259  165.8637 O.2     1  UNL1       -0.2702
     15 C         138.5806  140.4907  163.1947 C.3     1  UNL1        0.0937
     16 C         138.6397  141.1730  161.8602 C.3     1  UNL1        0.0223
     17 C         138.6987  141.8554  160.5256 C.3     1  UNL1        0.0301
     18 C         140.5374  140.4788  166.6472 C.2     1  UNL1        0.0564
     19 C         141.7337  139.5969  166.8501 C.2     1  UNL1        0.0994
     20 N         142.7417  139.9322  167.9092 N.2     1  UNL1       -0.2428
     21 C         142.5534  141.1493  168.7654 C.2     1  UNL1        0.0967
     22 C         143.3731  141.7293  169.8797 C.2     1  UNL1        0.0409
     23 C         142.6835  142.9696  170.3655 C.2     1  UNL1        0.1001
     24 N         141.4376  143.1562  169.5514 N.2     1  UNL1       -0.2463
     25 C         141.3571  142.0312  168.5625 C.2     1  UNL1        0.0812
     26 C         140.3492  141.6960  167.5035 C.3     1  UNL1        0.0798
     27 C         141.7486  144.6811  156.1410 C.3     1  UNL1        0.0263
     28 C         140.4791  145.0902  156.8274 C.3     1  UNL1        0.1054
     29 C         140.0552  146.5290  156.8247 C.3     1  UNL1        0.0263
@<TRIPOS>BOND
     1    27    28    1
     2    28    29    1
     3    28     1    1
     4     1     2   ar
     5     2     3   ar
     6     3     4   ar
     7     4     5   ar
     8     5     6    1
     9     6     7    2
    10     6     8    1
    11     8     9    1
    12     9    10    1
    13    10    11    1
    14    11    12    1
    15    12    13   am
    16    13    14    2
    17    13    18    1
    18    18    19    2
    19    19    20    1
    20    20    21    2
    21    21    22    1
    22    22    23    2
    23    23    24    1
    24    24    25    2
    25    25    26    1
    26    12    15    1
    27    15    16    1
    28     9    17    1
    29     5     1   ar
    30    16     9    1
    31    17     4    1
    32    26    18    1
    33    25    21    1
@<TRIPOS>MOLECULE
*****
 29 33 0 0 0
SMALL
GASTEIGER

@<TRIPOS>ATOM
      1 N         142.5080  140.6211  165.8516 N.ar    1  UNL1       -0.2503
      2 N         143.1987  141.9495  165.7604 N.ar    1  UNL1       -0.1680
      3 C         143.6226  142.1546  164.3362 C.ar    1  UNL1        0.1174
      4 C         143.1940  140.9529  163.5473 C.ar    1  UNL1        0.0188
      5 C         142.5051  140.0052  164.4839 C.ar    1  UNL1        0.1099
      6 C         141.9642  138.7038  163.9703 C.2     1  UNL1        0.1899
      7 O         141.2754  137.7560  164.9068 O.2     1  UNL1       -0.2898
      8 C         142.1122  138.3502  162.5200 C.3     1  UNL1        0.0712
      9 C         142.8011  139.2979  161.5835 C.3     1  UNL1        0.0148
     10 C         142.2602  137.9966  161.0699 C.3     1  UNL1        0.0223
     11 C         142.4081  137.6430  159.6197 C.3     1  UNL1        0.0937
     12 N         143.0970  138.5908  158.6831 N.am    1  UNL1       -0.2763
     13 C         143.2450  138.2371  157.2329 C.2     1  UNL1        0.2469
     14 O         143.9339  139.1849  156.2963 O.2     1  UNL1       -0.2702
     15 C         143.6379  139.8921  159.1967 C.3     1  UNL1        0.0937
     16 C         143.4899  140.2457  160.6469 C.3     1  UNL1        0.0223
     17 C         143.3420  140.5994  162.0971 C.3     1  UNL1        0.0301
     18 C         142.7041  136.9358  156.7193 C.2     1  UNL1        0.0564
     19 C         141.4698  136.9207  155.8670 C.2     1  UNL1        0.0994
     20 N         140.9290  135.6192  155.3534 N.2     1  UNL1       -0.2428
     21 C         141.6223  134.3329  155.6921 C.2     1  UNL1        0.0967
     22 C         141.3246  132.9074  155.3327 C.2     1  UNL1        0.0409
     23 C         142.3748  132.0414  155.9629 C.2     1  UNL1        0.1001
     24 N         143.3216  132.9318  156.7117 N.2     1  UNL1       -0.2463
     25 C         142.8565  134.3480  156.5444 C.2     1  UNL1        0.0812
     26 C         143.3974  135.6494  157.0580 C.3     1  UNL1        0.0798
     27 C         140.4864  140.2652  167.4441 C.3     1  UNL1        0.0263
     28 C         141.9230  140.0149  167.0927 C.3     1  UNL1        0.1054
     29 C         142.7745  139.1585  167.9823 C.3     1  UNL1        0.0263
@<TRIPOS>BOND
     1    27    28    1
     2    28    29    1
     3    28     1    1
     4     1     2   ar
     5     2     3   ar
     6     3     4   ar
     7     4     5   ar
     8     5     6    1
     9     6     7    2
    10     6     8    1
    11     8     9    1
    12     9    10    1
    13    10    11    1
    14    11    12    1
    15    12    13   am
    16    13    14    2
    17    13    18    1
    18    18    19    2
    19    19    20    1
    20    20    21    2
    21    21    22    1
    22    22    23    2
    23    23    24    1
    24    24    25    2
    25    25    26    1
    26    12    15    1
    27    15    16    1
    28     9    17    1
    29     5     1   ar
    30    16     9    1
    31    17     4    1
    32    26    18    1
    33    25    21    1
@<TRIPOS>MOLECULE
*****
 29 33 0 0 0
SMALL
GASTEIGER

@<TRIPOS>ATOM
      1 N         143.0572  141.6079  163.4557 N.ar    1  UNL1       -0.2503
      2 N         142.2369  140.3699  163.6662 N.ar    1  UNL1       -0.1680
      3 C         141.2102  140.3032  162.5746 C.ar    1  UNL1        0.1174
      4 C         141.3961  141.4999  161.6895 C.ar    1  UNL1        0.0188
      5 C         142.5377  142.3063  162.2341 C.ar    1  UNL1        0.1099
      6 C         142.9565  143.5723  161.5473 C.2     1  UNL1        0.1899
      7 O         144.0981  144.3787  162.0919 O.2     1  UNL1       -0.2898
      8 C         142.2338  144.0320  160.3158 C.3     1  UNL1        0.0712
      9 C         141.0922  143.2256  159.7712 C.3     1  UNL1        0.0148
     10 C         141.5111  144.4915  159.0844 C.3     1  UNL1        0.0223
     11 C         140.7884  144.9511  157.8530 C.3     1  UNL1        0.0937
     12 N         139.6468  144.1447  157.3084 N.am    1  UNL1       -0.2763
     13 C         138.9241  144.6044  156.0769 C.2     1  UNL1        0.2469
     14 O         137.7825  143.7980  155.5323 O.2     1  UNL1       -0.2702
     15 C         139.2280  142.8788  157.9952 C.3     1  UNL1        0.0937
     16 C         139.9507  142.4192  159.2266 C.3     1  UNL1        0.0223
     17 C         140.6734  141.9595  160.4581 C.3     1  UNL1        0.0301
     18 C         139.3429  145.8704  155.3901 C.2     1  UNL1        0.0564
     19 C         140.3063  145.8172  154.2416 C.2     1  UNL1        0.0994
     20 N         140.7251  147.0833  153.5547 N.2     1  UNL1       -0.2428
     21 C         140.1806  148.4025  154.0164 C.2     1  UNL1        0.0967
     22 C         140.4093  149.8056  153.5379 C.2     1  UNL1        0.0409
     23 C         139.5873  150.7260  154.3907 C.2     1  UNL1        0.1001
     24 N         138.8506  149.8917  155.3963 N.2     1  UNL1       -0.2463
     25 C         139.2173  148.4557  155.1650 C.2     1  UNL1        0.0812
     26 C         138.7985  147.1897  155.8518 C.3     1  UNL1        0.0798
     27 C         145.6046  141.6893  163.9602 C.3     1  UNL1        0.0263
     28 C         144.1972  142.0670  164.3159 C.3     1  UNL1        0.1054
     29 C         143.9296  142.9038  165.5317 C.3     1  UNL1        0.0263
@<TRIPOS>BOND
     1    27    28    1
     2    28    29    1
     3    28     1    1
     4     1     2   ar
     5     2     3   ar
     6     3     4   ar
     7     4     5   ar
     8     5     6    1
     9     6     7    2
    10     6     8    1
    11     8     9    1
    12     9    10    1
    13    10    11    1
    14    11    12    1
    15    12    13   am
    16    13    14    2
    17    13    18    1
    18    18    19    2
    19    19    20    1
    20    20    21    2
    21    21    22    1
    22    22    23    2
    23    23    24    1
    24    24    25    2
    25    25    26    1
    26    12    15    1
    27    15    16    1
    28     9    17    1
    29     5     1   ar
    30    16     9    1
    31    17     4    1
    32    26    18    1
    33    25    21    1
@<TRIPOS>MOLECULE
*****
 29 33 0 0 0
SMALL
GASTEIGER

@<TRIPOS>ATOM
      1 N         141.4780  139.7953  166.5441 N.ar    1  UNL1       -0.2503
      2 N         142.7017  139.0751  167.0279 N.ar    1  UNL1       -0.1680
      3 C         143.3573  138.4284  165.8439 C.ar    1  UNL1        0.1174
      4 C         142.5389  138.7489  164.6283 C.ar    1  UNL1        0.0188
      5 C         141.3775  139.5937  165.0611 C.ar    1  UNL1        0.1099
      6 C         140.3783  140.0703  164.0489 C.2     1  UNL1        0.1899
      7 O         139.2169  140.9151  164.4817 O.2     1  UNL1       -0.2898
      8 C         140.5406  139.7021  162.6039 C.3     1  UNL1        0.0712
      9 C         141.7021  138.8573  162.1711 C.3     1  UNL1        0.0148
     10 C         140.7030  139.3338  161.1589 C.3     1  UNL1        0.0223
     11 C         140.8653  138.9656  159.7139 C.3     1  UNL1        0.0937
     12 N         142.0268  138.1208  159.2811 N.am    1  UNL1       -0.2763
     13 C         142.1891  137.7526  157.8361 C.2     1  UNL1        0.2469
     14 O         143.3506  136.9078  157.4033 O.2     1  UNL1       -0.2702
     15 C         143.0259  137.6442  160.2933 C.3     1  UNL1        0.0937
     16 C         142.8636  138.0125  161.7383 C.3     1  UNL1        0.0223
     17 C         142.7013  138.3807  163.1834 C.3     1  UNL1        0.0301
     18 C         141.1900  138.2292  156.8239 C.2     1  UNL1        0.0564
     19 C         141.3898  139.5469  156.1356 C.2     1  UNL1        0.0994
     20 N         140.3906  140.0234  155.1233 N.2     1  UNL1       -0.2428
     21 C         139.1916  139.1823  154.7994 C.2     1  UNL1        0.0967
     22 C         138.0464  139.3893  153.8531 C.2     1  UNL1        0.0409
     23 C         137.1388  138.1995  153.9565 C.2     1  UNL1        0.1001
     24 N         137.7231  137.2572  154.9667 N.2     1  UNL1       -0.2463
     25 C         138.9918  137.8646  155.4877 C.2     1  UNL1        0.0812
     26 C         139.9909  137.3880  156.4999 C.3     1  UNL1        0.0798
     27 C         139.3788  139.8854  168.0722 C.3     1  UNL1        0.0263
     28 C         140.5227  140.5794  167.3941 C.3     1  UNL1        0.1054
     29 C         140.7113  142.0576  167.5660 C.3     1  UNL1        0.0263
@<TRIPOS>BOND
     1    27    28    1
     2    28    29    1
     3    28     1    1
     4     1     2   ar
     5     2     3   ar
     6     3     4   ar
     7     4     5   ar
     8     5     6    1
     9     6     7    2
    10     6     8    1
    11     8     9    1
    12     9    10    1
    13    10    11    1
    14    11    12    1
    15    12    13   am
    16    13    14    2
    17    13    18    1
    18    18    19    2
    19    19    20    1
    20    20    21    2
    21    21    22    1
    22    22    23    2
    23    23    24    1
    24    24    25    2
    25    25    26    1
    26    12    15    1
    27    15    16    1
    28     9    17    1
    29     5     1   ar
    30    16     9    1
    31    17     4    1
    32    26    18    1
    33    25    21    1
@<TRIPOS>MOLECULE
*****
 29 33 0 0 0
SMALL
GASTEIGER

@<TRIPOS>ATOM
      1 N         141.9787  137.5716  156.0799 N.ar    1  UNL1       -0.2503
      2 N         140.9921  138.0558  155.0592 N.ar    1  UNL1       -0.1680
      3 C         139.9119  138.8077  155.7789 C.ar    1  UNL1        0.1174
      4 C         140.2311  138.7881  157.2445 C.ar    1  UNL1        0.0188
      5 C         141.5085  138.0241  157.4305 C.ar    1  UNL1        0.1099
      6 C         142.0783  137.8393  158.8056 C.2     1  UNL1        0.1899
      7 O         143.3557  137.0753  158.9917 O.2     1  UNL1       -0.2898
      8 C         141.3708  138.4184  159.9948 C.3     1  UNL1        0.0712
      9 C         140.0934  139.1824  159.8088 C.3     1  UNL1        0.0148
     10 C         140.6633  138.9975  161.1839 C.3     1  UNL1        0.0223
     11 C         139.9558  139.5767  162.3730 C.3     1  UNL1        0.0937
     12 N         138.6784  140.3407  162.1870 N.am    1  UNL1       -0.2763
     13 C         137.9709  140.9198  163.3761 C.2     1  UNL1        0.2469
     14 O         136.6935  141.6838  163.1901 O.2     1  UNL1       -0.2702
     15 C         138.1085  140.5255  160.8118 C.3     1  UNL1        0.0937
     16 C         138.8160  139.9464  159.6227 C.3     1  UNL1        0.0223
     17 C         139.5236  139.3673  158.4335 C.3     1  UNL1        0.0301
     18 C         138.5407  140.7349  164.7513 C.2     1  UNL1        0.0564
     19 C         138.1653  139.5308  165.5631 C.2     1  UNL1        0.0994
     20 N         138.7352  139.3460  166.9383 N.2     1  UNL1       -0.2428
     21 C         139.6805  140.3652  167.5016 C.2     1  UNL1        0.0967
     22 C         140.3965  140.4513  168.8169 C.2     1  UNL1        0.0409
     23 C         141.2145  141.7087  168.8180 C.2     1  UNL1        0.1001
     24 N         141.0040  142.3997  167.5033 N.2     1  UNL1       -0.2463
     25 C         140.0560  141.5694  166.6898 C.2     1  UNL1        0.0812
     26 C         139.4861  141.7543  165.3147 C.3     1  UNL1        0.0798
     27 C         143.2109  135.2863  155.9854 C.3     1  UNL1        0.0263
     28 C         143.2182  136.7746  155.7994 C.3     1  UNL1        0.1054
     29 C         144.4649  137.4661  155.3328 C.3     1  UNL1        0.0263
@<TRIPOS>BOND
     1    27    28    1
     2    28    29    1
     3    28     1    1
     4     1     2   ar
     5     2     3   ar
     6     3     4   ar
     7     4     5   ar
     8     5     6    1
     9     6     7    2
    10     6     8    1
    11     8     9    1
    12     9    10    1
    13    10    11    1
    14    11    12    1
    15    12    13   am
    16    13    14    2
    17    13    18    1
    18    18    19    2
    19    19    20    1
    20    20    21    2
    21    21    22    1
    22    22    23    2
    23    23    24    1
    24    24    25    2
    25    25    26    1
    26    12    15    1
    27    15    16    1
    28     9    17    1
    29     5     1   ar
    30    16     9    1
    31    17     4    1
    32    26    18    1
    33    25    21    1
@<TRIPOS>MOLECULE
*****
 29 33 0 0 0
SMALL
GASTEIGER

@<TRIPOS>ATOM
      1 N         141.6259  140.1118  167.8241 N.ar    1  UNL1       -0.2503
      2 N         142.7915  139.2760  168.2633 N.ar    1  UNL1       -0.1680
      3 C         143.3708  138.6137  167.0484 C.ar    1  UNL1        0.1174
      4 C         142.5632  139.0402  165.8585 C.ar    1  UNL1        0.0188
      5 C         141.4848  139.9661  166.3378 C.ar    1  UNL1        0.1099
      6 C         140.5137  140.5568  165.3591 C.2     1  UNL1        0.1899
      7 O         139.4354  141.4827  165.8385 O.2     1  UNL1       -0.2898
      8 C         140.6210  140.2217  163.9009 C.3     1  UNL1        0.0712
      9 C         141.6994  139.2958  163.4215 C.3     1  UNL1        0.0148
     10 C         140.7283  139.8866  162.4428 C.3     1  UNL1        0.0223
     11 C         140.8356  139.5514  160.9847 C.3     1  UNL1        0.0937
     12 N         141.9140  138.6255  160.5053 N.am    1  UNL1       -0.2763
     13 C         142.0213  138.2904  159.0471 C.2     1  UNL1        0.2469
     14 O         143.0997  137.3645  158.5678 O.2     1  UNL1       -0.2702
     15 C         142.8851  138.0348  161.4841 C.3     1  UNL1        0.0937
     16 C         142.7778  138.3699  162.9422 C.3     1  UNL1        0.0223
     17 C         142.6705  138.7051  164.4004 C.3     1  UNL1        0.0301
     18 C         141.0502  138.8811  158.0684 C.2     1  UNL1        0.0564
     19 C         139.8178  138.1185  157.6814 C.2     1  UNL1        0.0994
     20 N         138.8467  138.7094  156.7026 N.2     1  UNL1       -0.2428
     21 C         139.1080  140.0627  156.1109 C.2     1  UNL1        0.0967
     22 C         138.3374  140.8946  155.1290 C.2     1  UNL1        0.0409
     23 C         139.0935  142.1713  154.9091 C.2     1  UNL1        0.1001
     24 N         140.3313  142.1285  155.7552 N.2     1  UNL1       -0.2463
     25 C         140.3403  140.8253  156.4979 C.2     1  UNL1        0.0812
     26 C         141.3114  140.2345  157.4766 C.3     1  UNL1        0.0798
     27 C         139.4875  140.3728  169.2763 C.3     1  UNL1        0.0263
     28 C         140.7544  140.9468  168.7147 C.3     1  UNL1        0.1054
     29 C         141.1498  142.3558  169.0438 C.3     1  UNL1        0.0263
@<TRIPOS>BOND
     1    27    28    1
     2    28    29    1
     3    28     1    1
     4     1     2   ar
     5     2     3   ar
     6     3     4   ar
     7     4     5   ar
     8     5     6    1
     9     6     7    2
    10     6     8    1
    11     8     9    1
    12     9    10    1
    13    10    11    1
    14    11    12    1
    15    12    13   am
    16    13    14    2
    17    13    18    1
    18    18    19    2
    19    19    20    1
    20    20    21    2
    21    21    22    1
    22    22    23    2
    23    23    24    1
    24    24    25    2
    25    25    26    1
    26    12    15    1
    27    15    16    1
    28     9    17    1
    29     5     1   ar
    30    16     9    1
    31    17     4    1
    32    26    18    1
    33    25    21    1
@<TRIPOS>MOLECULE
*****
 29 33 0 0 0
SMALL
GASTEIGER

@<TRIPOS>ATOM
      1 N         142.6581  139.5576  167.8512 N.ar    1  UNL1       -0.2503
      2 N         143.4794  138.3067  167.9537 N.ar    1  UNL1       -0.1680
      3 C         143.9518  137.9482  166.5759 C.ar    1  UNL1        0.1174
      4 C         143.4223  138.9775  165.6218 C.ar    1  UNL1        0.0188
      5 C         142.6228  139.9722  166.4100 C.ar    1  UNL1        0.1099
      6 C         141.9659  141.1270  165.7136 C.2     1  UNL1        0.1899
      7 O         141.1663  142.1217  166.5018 O.2     1  UNL1       -0.2898
      8 C         142.1085  141.2870  164.2290 C.3     1  UNL1        0.0712
      9 C         142.9081  140.2923  163.4408 C.3     1  UNL1        0.0148
     10 C         142.2512  141.4470  162.7444 C.3     1  UNL1        0.0223
     11 C         142.3939  141.6071  161.2598 C.3     1  UNL1        0.0937
     12 N         143.1934  140.6123  160.4717 N.am    1  UNL1       -0.2763
     13 C         143.3361  140.7724  158.9870 C.2     1  UNL1        0.2469
     14 O         144.1357  139.7777  158.1988 O.2     1  UNL1       -0.2702
     15 C         143.8503  139.4576  161.1681 C.3     1  UNL1        0.0937
     16 C         143.7077  139.2976  162.6526 C.3     1  UNL1        0.0223
     17 C         143.5650  139.1375  164.1373 C.3     1  UNL1        0.0301
     18 C         142.6792  141.9271  158.2906 C.2     1  UNL1        0.0564
     19 C         143.3950  143.2405  158.1777 C.2     1  UNL1        0.0994
     20 N         142.7380  144.3953  157.4812 N.2     1  UNL1       -0.2428
     21 C         141.3653  144.2367  156.8978 C.2     1  UNL1        0.0967
     22 C         140.4720  145.1895  156.1601 C.2     1  UNL1        0.0409
     23 C         139.2041  144.4650  155.8171 C.2     1  UNL1        0.1001
     24 N         139.3139  143.0645  156.3428 N.2     1  UNL1       -0.2463
     25 C         140.6495  142.9233  157.0107 C.2     1  UNL1        0.0812
     26 C         141.3064  141.7686  157.7071 C.3     1  UNL1        0.0798
     27 C         142.7564  141.2687  169.8037 C.3     1  UNL1        0.0263
     28 C         141.9893  140.2691  168.9899 C.3     1  UNL1        0.1054
     29 C         140.5536  139.9811  169.3147 C.3     1  UNL1        0.0263
@<TRIPOS>BOND
     1    27    28    1
     2    28    29    1
     3    28     1    1
     4     1     2   ar
     5     2     3   ar
     6     3     4   ar
     7     4     5   ar
     8     5     6    1
     9     6     7    2
    10     6     8    1
    11     8     9    1
    12     9    10    1
    13    10    11    1
    14    11    12    1
    15    12    13   am
    16    13    14    2
    17    13    18    1
    18    18    19    2
    19    19    20    1
    20    20    21    2
    21    21    22    1
    22    22    23    2
    23    23    24    1
    24    24    25    2
    25    25    26    1
    26    12    15    1
    27    15    16    1
    28     9    17    1
    29     5     1   ar
    30    16     9    1
    31    17     4    1
    32    26    18    1
    33    25    21    1
