@<TRIPOS>MOLECULE
*****
 35 39 0 0 0
SMALL
GASTEIGER

@<TRIPOS>ATOM
      1 C         143.5970  137.6075  156.0537 C.ar    1  UNL1        0.0829
      2 C         144.5571  138.1415  155.0325 C.ar    1  UNL1        0.0193
      3 C         145.1682  139.4991  155.2154 C.ar    1  UNL1        0.0074
      4 C         144.8190  140.3228  156.4194 C.ar    1  UNL1        0.0676
      5 C         145.4301  141.6804  156.6023 C.ar    1  UNL1        0.1376
      6 N         145.0810  142.5040  157.8063 N.ar    1  UNL1       -0.1986
      7 C         144.1208  141.9700  158.8276 C.ar    1  UNL1        0.2227
      8 N         143.5098  140.6124  158.6447 N.ar    1  UNL1       -0.1944
      9 C         143.8589  139.7888  157.4407 C.ar    1  UNL1        0.1678
     10 N         143.2479  138.4311  157.2578 N.ar    1  UNL1       -0.2264
     11 N         146.3903  142.2144  155.5811 N.pl3   1  UNL1       -0.2897
     12 C         147.8486  141.8757  155.6734 C.3     1  UNL1        0.1242
     13 C         148.8088  142.4098  154.6521 C.3     1  UNL1        0.1636
     14 O         148.3106  143.2825  153.5386 O.3     1  UNL1       -0.3502
     15 C         146.8522  143.6213  153.4462 C.3     1  UNL1        0.1618
     16 C         145.8921  143.0873  154.4674 C.3     1  UNL1        0.1038
     17 C         144.4338  143.4260  154.3751 C.3     1  UNL1        0.0241
     18 N         143.7717  142.7936  160.0317 N.pl3   1  UNL1       -0.2753
     19 C         144.7231  142.8711  161.1888 C.3     1  UNL1        0.1109
     20 C         144.3740  143.6947  162.3929 C.3     1  UNL1        0.0939
     21 N         143.0735  144.4408  162.4398 N.3     1  UNL1       -0.2686
     22 C         142.7244  145.2644  163.6439 C.3     1  UNL1        0.0897
     23 C         142.1222  144.3633  161.2827 C.3     1  UNL1        0.0939
     24 C         142.4713  143.5397  160.0786 C.3     1  UNL1        0.1109
     25 C         141.7638  133.5345  155.5053 C.ar    1  UNL1        0.1370
     26 C         141.1154  134.7381  154.8881 C.ar    1  UNL1        0.0367
     27 C         141.7265  136.0958  155.0709 C.ar    1  UNL1        0.0046
     28 C         142.9859  136.2498  155.8709 C.ar    1  UNL1        0.0177
     29 C         143.6343  135.0463  156.4881 C.ar    1  UNL1        0.0027
     30 C         143.0233  133.6886  156.3053 C.ar    1  UNL1        0.0410
     31 C         143.6717  132.4851  156.9225 C.3     1  UNL1        0.1666
     32 O         142.8383  131.4800  157.6608 O.3     1  UNL1       -0.3771
     33 H         142.4669  131.8905  158.4573 H       1  UNL1        0.2109
     34 C         141.3524  131.4317  154.0361 C.3     1  UNL1        0.2525
     35 O         141.1528  132.1769  155.3225 O.3     1  UNL1       -0.4717
@<TRIPOS>BOND
     1    34    35    1
     2    35    25    1
     3    25    26   ar
     4    26    27   ar
     5    27    28   ar
     6    28     1    1
     7     1     2   ar
     8     2     3   ar
     9     3     4   ar
    10     4     5   ar
    11     5    11    1
    12    11    12    1
    13    12    13    1
    14    13    14    1
    15    14    15    1
    16    15    16    1
    17    16    17    1
    18     5     6   ar
    19     6     7   ar
    20     7    18    1
    21    18    19    1
    22    19    20    1
    23    20    21    1
    24    21    22    1
    25    21    23    1
    26    23    24    1
    27     7     8   ar
    28     8     9   ar
    29     9    10   ar
    30    28    29   ar
    31    29    30   ar
    32    30    31    1
    33    31    32    1
    34    30    25   ar
    35    10     1   ar
    36     9     4   ar
    37    16    11    1
    38    24    18    1
    39    32    33    1
@<TRIPOS>MOLECULE
*****
 35 39 0 0 0
SMALL
GASTEIGER

@<TRIPOS>ATOM
      1 C         139.7201  139.8060  162.5880 C.ar    1  UNL1        0.0829
      2 C         140.2092  138.5979  161.8455 C.ar    1  UNL1        0.0193
      3 C         140.4803  138.6817  160.3726 C.ar    1  UNL1        0.0074
      4 C         140.2624  139.9736  159.6422 C.ar    1  UNL1        0.0676
      5 C         140.5335  140.0574  158.1693 C.ar    1  UNL1        0.1376
      6 N         140.3156  141.3493  157.4388 N.ar    1  UNL1       -0.1986
      7 C         139.8265  142.5574  158.1814 C.ar    1  UNL1        0.2227
      8 N         139.5554  142.4736  159.6542 N.ar    1  UNL1       -0.1944
      9 C         139.7733  141.1817  160.3847 C.ar    1  UNL1        0.1678
     10 N         139.5022  141.0979  161.8575 N.ar    1  UNL1       -0.2264
     11 N         141.0226  138.8493  157.4268 N.pl3   1  UNL1       -0.2897
     12 C         140.0394  137.9001  156.8083 C.3     1  UNL1        0.1242
     13 C         140.5285  136.6920  156.0659 C.3     1  UNL1        0.1636
     14 O         142.0008  136.4330  155.9419 O.3     1  UNL1       -0.3502
     15 C         142.9840  137.3822  156.5604 C.3     1  UNL1        0.1618
     16 C         142.4949  138.5903  157.3028 C.3     1  UNL1        0.1038
     17 C         143.4781  139.5394  157.9213 C.3     1  UNL1        0.0241
     18 N         139.6086  143.8493  157.4509 N.pl3   1  UNL1       -0.2753
     19 C         140.2351  145.1136  157.9600 C.3     1  UNL1        0.1109
     20 C         140.0172  146.4055  157.2295 C.3     1  UNL1        0.0939
     21 N         139.1727  146.4331  155.9901 N.3     1  UNL1       -0.2686
     22 C         138.9548  147.7250  155.2596 C.3     1  UNL1        0.0897
     23 C         138.5463  145.1688  155.4811 C.3     1  UNL1        0.0939
     24 C         138.7642  143.8769  156.2115 C.3     1  UNL1        0.1109
     25 C         138.9066  139.5548  167.0068 C.ar    1  UNL1        0.1370
     26 C         139.6537  140.7290  166.4473 C.ar    1  UNL1        0.0367
     27 C         139.9249  140.8127  164.9743 C.ar    1  UNL1        0.0046
     28 C         139.4489  139.7223  164.0609 C.ar    1  UNL1        0.0177
     29 C         138.7018  138.5481  164.6204 C.ar    1  UNL1        0.0027
     30 C         138.4307  138.4643  166.0933 C.ar    1  UNL1        0.0410
     31 C         137.6836  137.2900  166.6527 C.3     1  UNL1        0.1666
     32 O         136.5976  137.5051  167.6648 O.3     1  UNL1       -0.3771
     33 H         136.9828  137.8570  168.4826 H       1  UNL1        0.2109
     34 C         139.3710  140.3687  169.4299 C.3     1  UNL1        0.2525
     35 O         138.6355  139.4710  168.4796 O.3     1  UNL1       -0.4717
@<TRIPOS>BOND
     1    34    35    1
     2    35    25    1
     3    25    26   ar
     4    26    27   ar
     5    27    28   ar
     6    28     1    1
     7     1     2   ar
     8     2     3   ar
     9     3     4   ar
    10     4     5   ar
    11     5    11    1
    12    11    12    1
    13    12    13    1
    14    13    14    1
    15    14    15    1
    16    15    16    1
    17    16    17    1
    18     5     6   ar
    19     6     7   ar
    20     7    18    1
    21    18    19    1
    22    19    20    1
    23    20    21    1
    24    21    22    1
    25    21    23    1
    26    23    24    1
    27     7     8   ar
    28     8     9   ar
    29     9    10   ar
    30    28    29   ar
    31    29    30   ar
    32    30    31    1
    33    31    32    1
    34    30    25   ar
    35    10     1   ar
    36     9     4   ar
    37    16    11    1
    38    24    18    1
    39    32    33    1
@<TRIPOS>MOLECULE
*****
 35 39 0 0 0
SMALL
GASTEIGER

@<TRIPOS>ATOM
      1 C         139.9490  140.5105  163.0370 C.ar    1  UNL1        0.0829
      2 C         139.9954  141.9226  162.5331 C.ar    1  UNL1        0.0193
      3 C         140.3252  142.1953  161.0955 C.ar    1  UNL1        0.0074
      4 C         140.6086  141.0561  160.1618 C.ar    1  UNL1        0.0676
      5 C         140.9384  141.3290  158.7241 C.ar    1  UNL1        0.1376
      6 N         141.2218  140.1897  157.7904 N.ar    1  UNL1       -0.1986
      7 C         141.1754  138.7776  158.2943 C.ar    1  UNL1        0.2227
      8 N         140.8456  138.5048  159.7319 N.ar    1  UNL1       -0.1944
      9 C         140.5622  139.6441  160.6657 C.ar    1  UNL1        0.1678
     10 N         140.2324  139.3713  162.1033 N.ar    1  UNL1       -0.2264
     11 N         140.9847  142.7410  158.2202 N.pl3   1  UNL1       -0.2897
     12 C         142.2695  143.5135  158.2706 C.3     1  UNL1        0.1242
     13 C         142.3159  144.9256  157.7666 C.3     1  UNL1        0.1636
     14 O         141.0774  145.5652  157.2123 O.3     1  UNL1       -0.3502
     15 C         139.7926  144.7926  157.1620 C.3     1  UNL1        0.1618
     16 C         139.7463  143.3806  157.6659 C.3     1  UNL1        0.1038
     17 C         138.4615  142.6081  157.6155 C.3     1  UNL1        0.0241
     18 N         141.4588  137.6384  157.3606 N.pl3   1  UNL1       -0.2753
     19 C         140.4471  137.2490  156.3238 C.3     1  UNL1        0.1109
     20 C         140.7305  136.1097  155.3901 C.3     1  UNL1        0.0939
     21 N         142.0257  135.3599  155.4932 N.3     1  UNL1       -0.2686
     22 C         142.3091  134.2207  154.5595 C.3     1  UNL1        0.0897
     23 C         143.0373  135.7494  156.5300 C.3     1  UNL1        0.0939
     24 C         142.7539  136.8886  157.4637 C.3     1  UNL1        0.1109
     25 C         138.9596  139.6919  167.3499 C.ar    1  UNL1        0.1370
     26 C         139.7485  140.9129  166.9801 C.ar    1  UNL1        0.0367
     27 C         140.0783  141.1858  165.5425 C.ar    1  UNL1        0.0046
     28 C         139.6192  140.2377  164.4747 C.ar    1  UNL1        0.0177
     29 C         138.8302  139.0167  164.8445 C.ar    1  UNL1        0.0027
     30 C         138.5004  138.7438  166.2820 C.ar    1  UNL1        0.0410
     31 C         137.7115  137.5228  166.6518 C.3     1  UNL1        0.1666
     32 O         136.6231  137.6160  167.6797 O.3     1  UNL1       -0.3771
     33 H         137.0112  137.8262  168.5435 H       1  UNL1        0.2109
     34 C         139.0898  140.3666  169.8554 C.3     1  UNL1        0.2525
     35 O         138.6298  139.4190  168.7875 O.3     1  UNL1       -0.4717
@<TRIPOS>BOND
     1    34    35    1
     2    35    25    1
     3    25    26   ar
     4    26    27   ar
     5    27    28   ar
     6    28     1    1
     7     1     2   ar
     8     2     3   ar
     9     3     4   ar
    10     4     5   ar
    11     5    11    1
    12    11    12    1
    13    12    13    1
    14    13    14    1
    15    14    15    1
    16    15    16    1
    17    16    17    1
    18     5     6   ar
    19     6     7   ar
    20     7    18    1
    21    18    19    1
    22    19    20    1
    23    20    21    1
    24    21    22    1
    25    21    23    1
    26    23    24    1
    27     7     8   ar
    28     8     9   ar
    29     9    10   ar
    30    28    29   ar
    31    29    30   ar
    32    30    31    1
    33    31    32    1
    34    30    25   ar
    35    10     1   ar
    36     9     4   ar
    37    16    11    1
    38    24    18    1
    39    32    33    1
@<TRIPOS>MOLECULE
*****
 35 39 0 0 0
SMALL
GASTEIGER

@<TRIPOS>ATOM
      1 C         143.6572  137.8262  155.7360 C.ar    1  UNL1        0.0829
      2 C         144.3239  138.5625  154.6121 C.ar    1  UNL1        0.0193
      3 C         144.7206  139.9985  154.7872 C.ar    1  UNL1        0.0074
      4 C         144.4505  140.6981  156.0863 C.ar    1  UNL1        0.0676
      5 C         144.8472  142.1341  156.2614 C.ar    1  UNL1        0.1376
      6 N         144.5771  142.8337  157.5604 N.ar    1  UNL1       -0.1986
      7 C         143.9103  142.0973  158.6844 C.ar    1  UNL1        0.2227
      8 N         143.5137  140.6614  158.5093 N.ar    1  UNL1       -0.1944
      9 C         143.7838  139.9618  157.2102 C.ar    1  UNL1        0.1678
     10 N         143.3871  138.5259  157.0350 N.ar    1  UNL1       -0.2264
     11 N         145.5140  142.8704  155.1375 N.pl3   1  UNL1       -0.2897
     12 C         144.6842  143.5845  154.1121 C.3     1  UNL1        0.1242
     13 C         145.3510  144.3208  152.9881 C.3     1  UNL1        0.1636
     14 O         146.8476  144.3430  152.8896 O.3     1  UNL1       -0.3502
     15 C         147.6774  143.6289  153.9150 C.3     1  UNL1        0.1618
     16 C         147.0106  142.8926  155.0389 C.3     1  UNL1        0.1038
     17 C         147.8404  142.1785  156.0643 C.3     1  UNL1        0.0241
     18 N         143.6403  142.7970  159.9835 N.pl3   1  UNL1       -0.2753
     19 C         144.6467  142.7318  161.0938 C.3     1  UNL1        0.1109
     20 C         144.3766  143.4314  162.3929 C.3     1  UNL1        0.0939
     21 N         143.1001  144.1962  162.5816 N.3     1  UNL1       -0.2686
     22 C         142.8300  144.8958  163.8807 C.3     1  UNL1        0.0897
     23 C         142.0937  144.2614  161.4713 C.3     1  UNL1        0.0939
     24 C         142.3638  143.5617  160.1722 C.3     1  UNL1        0.1109
     25 C         142.4671  133.5183  155.2107 C.ar    1  UNL1        0.1370
     26 C         142.0418  134.5424  154.2006 C.ar    1  UNL1        0.0367
     27 C         142.4385  135.9784  154.3757 C.ar    1  UNL1        0.0046
     28 C         143.2605  136.3902  155.5609 C.ar    1  UNL1        0.0177
     29 C         143.6859  135.3661  156.5710 C.ar    1  UNL1        0.0027
     30 C         143.2892  133.9302  156.3959 C.ar    1  UNL1        0.0410
     31 C         143.7146  132.9061  157.4060 C.3     1  UNL1        0.1666
     32 O         142.8500  131.7092  157.6704 O.3     1  UNL1       -0.3771
     33 H         142.0148  131.9960  158.0718 H       1  UNL1        0.2109
     34 C         140.9332  131.7241  154.1257 C.3     1  UNL1        0.2525
     35 O         142.0705  132.0823  155.0356 O.3     1  UNL1       -0.4717
@<TRIPOS>BOND
     1    34    35    1
     2    35    25    1
     3    25    26   ar
     4    26    27   ar
     5    27    28   ar
     6    28     1    1
     7     1     2   ar
     8     2     3   ar
     9     3     4   ar
    10     4     5   ar
    11     5    11    1
    12    11    12    1
    13    12    13    1
    14    13    14    1
    15    14    15    1
    16    15    16    1
    17    16    17    1
    18     5     6   ar
    19     6     7   ar
    20     7    18    1
    21    18    19    1
    22    19    20    1
    23    20    21    1
    24    21    22    1
    25    21    23    1
    26    23    24    1
    27     7     8   ar
    28     8     9   ar
    29     9    10   ar
    30    28    29   ar
    31    29    30   ar
    32    30    31    1
    33    31    32    1
    34    30    25   ar
    35    10     1   ar
    36     9     4   ar
    37    16    11    1
    38    24    18    1
    39    32    33    1
@<TRIPOS>MOLECULE
*****
 35 39 0 0 0
SMALL
GASTEIGER

@<TRIPOS>ATOM
      1 C         141.2014  143.9930  159.6789 C.ar    1  UNL1        0.0829
      2 C         140.4871  142.8072  159.1014 C.ar    1  UNL1        0.0193
      3 C         139.6855  142.9547  157.8422 C.ar    1  UNL1        0.0074
      4 C         139.5983  144.2880  157.1605 C.ar    1  UNL1        0.0676
      5 C         138.7967  144.4355  155.9012 C.ar    1  UNL1        0.1376
      6 N         138.7094  145.7688  155.2195 N.ar    1  UNL1       -0.1986
      7 C         139.4238  146.9547  155.7972 C.ar    1  UNL1        0.2227
      8 N         140.2254  146.8071  157.0564 N.ar    1  UNL1       -0.1944
      9 C         140.3126  145.4738  157.7380 C.ar    1  UNL1        0.1678
     10 N         141.1142  145.3263  158.9973 N.ar    1  UNL1       -0.2264
     11 N         138.0824  143.2497  155.3237 N.pl3   1  UNL1       -0.2897
     12 C         136.6584  142.9730  155.7053 C.3     1  UNL1        0.1242
     13 C         135.9440  141.7871  155.1277 C.3     1  UNL1        0.1636
     14 O         136.6537  140.8781  154.1685 O.3     1  UNL1       -0.3502
     15 C         138.0777  141.1549  153.7869 C.3     1  UNL1        0.1618
     16 C         138.7920  142.3407  154.3645 C.3     1  UNL1        0.1038
     17 C         140.2160  142.6174  153.9829 C.3     1  UNL1        0.0241
     18 N         139.3366  148.2880  155.1155 N.pl3   1  UNL1       -0.2753
     19 C         138.6857  149.4457  155.8128 C.3     1  UNL1        0.1109
     20 C         138.5985  150.7790  155.1312 C.3     1  UNL1        0.0939
     21 N         139.1621  150.9546  153.7522 N.3     1  UNL1       -0.2686
     22 C         139.0748  152.2879  153.0705 C.3     1  UNL1        0.0897
     23 C         139.8129  149.7969  153.0549 C.3     1  UNL1        0.0939
     24 C         139.9001  148.4636  153.7366 C.3     1  UNL1        0.1109
     25 C         143.6063  143.5505  163.4567 C.ar    1  UNL1        0.1370
     26 C         142.5512  144.6122  163.3593 C.ar    1  UNL1        0.0367
     27 C         141.7496  144.7597  162.1000 C.ar    1  UNL1        0.0046
     28 C         142.0031  143.8455  160.9382 C.ar    1  UNL1        0.0177
     29 C         143.0582  142.7838  161.0356 C.ar    1  UNL1        0.0027
     30 C         143.8598  142.6362  162.2948 C.ar    1  UNL1        0.0410
     31 C         144.9149  141.5745  162.3922 C.3     1  UNL1        0.1666
     32 O         146.2721  141.9133  162.9335 O.3     1  UNL1       -0.3771
     33 H         146.7165  142.5289  162.3298 H       1  UNL1        0.2109
     34 C         143.8209  142.6933  165.8998 C.3     1  UNL1        0.2525
     35 O         144.4079  143.4030  164.7159 O.3     1  UNL1       -0.4717
@<TRIPOS>BOND
     1    34    35    1
     2    35    25    1
     3    25    26   ar
     4    26    27   ar
     5    27    28   ar
     6    28     1    1
     7     1     2   ar
     8     2     3   ar
     9     3     4   ar
    10     4     5   ar
    11     5    11    1
    12    11    12    1
    13    12    13    1
    14    13    14    1
    15    14    15    1
    16    15    16    1
    17    16    17    1
    18     5     6   ar
    19     6     7   ar
    20     7    18    1
    21    18    19    1
    22    19    20    1
    23    20    21    1
    24    21    22    1
    25    21    23    1
    26    23    24    1
    27     7     8   ar
    28     8     9   ar
    29     9    10   ar
    30    28    29   ar
    31    29    30   ar
    32    30    31    1
    33    31    32    1
    34    30    25   ar
    35    10     1   ar
    36     9     4   ar
    37    16    11    1
    38    24    18    1
    39    32    33    1
@<TRIPOS>MOLECULE
*****
 35 39 0 0 0
SMALL
GASTEIGER

@<TRIPOS>ATOM
      1 C         143.5256  140.7430  161.6050 C.ar    1  UNL1        0.0829
      2 C         144.0587  141.8321  160.7221 C.ar    1  UNL1        0.0193
      3 C         144.1959  141.6014  159.2463 C.ar    1  UNL1        0.0074
      4 C         143.8001  140.2816  158.6535 C.ar    1  UNL1        0.0676
      5 C         143.9373  140.0509  157.1777 C.ar    1  UNL1        0.1376
      6 N         143.5415  138.7311  156.5849 N.ar    1  UNL1       -0.1986
      7 C         143.0084  137.6420  157.4679 C.ar    1  UNL1        0.2227
      8 N         142.8712  137.8727  158.9437 N.ar    1  UNL1       -0.1944
      9 C         143.2670  139.1925  159.5365 C.ar    1  UNL1        0.1678
     10 N         143.1298  139.4232  161.0122 N.ar    1  UNL1       -0.2264
     11 N         144.4704  141.1400  156.2947 N.pl3   1  UNL1       -0.2897
     12 C         145.9464  141.2555  156.0542 C.3     1  UNL1        0.1242
     13 C         146.4795  142.3447  155.1711 C.3     1  UNL1        0.1636
     14 O         145.5365  143.3183  154.5287 O.3     1  UNL1       -0.3502
     15 C         144.0604  143.2028  154.7693 C.3     1  UNL1        0.1618
     16 C         143.5273  142.1137  155.6523 C.3     1  UNL1        0.1038
     17 C         142.0513  141.9982  155.8928 C.3     1  UNL1        0.0241
     18 N         142.6126  136.3221  156.8751 N.pl3   1  UNL1       -0.2753
     19 C         141.5412  136.2619  155.8270 C.3     1  UNL1        0.1109
     20 C         141.1453  134.9420  155.2342 C.3     1  UNL1        0.0939
     21 N         141.8209  133.6825  155.6896 N.3     1  UNL1       -0.2686
     22 C         141.4251  132.3627  155.0968 C.3     1  UNL1        0.0897
     23 C         142.8922  133.7428  156.7377 C.3     1  UNL1        0.0939
     24 C         143.2881  135.0627  157.3305 C.3     1  UNL1        0.1109
     25 C         143.1139  141.4350  166.0325 C.ar    1  UNL1        0.1370
     26 C         143.4484  142.5795  165.1224 C.ar    1  UNL1        0.0367
     27 C         143.5856  142.3488  163.6466 C.ar    1  UNL1        0.0046
     28 C         143.3884  140.9737  163.0809 C.ar    1  UNL1        0.0177
     29 C         143.0539  139.8292  163.9909 C.ar    1  UNL1        0.0027
     30 C         142.9167  140.0598  165.4667 C.ar    1  UNL1        0.0410
     31 C         142.5822  138.9153  166.3768 C.3     1  UNL1        0.1666
     32 O         143.3432  138.7268  167.6555 O.3     1  UNL1       -0.3771
     33 H         144.2665  138.5088  167.4532 H       1  UNL1        0.2109
     34 C         141.6808  142.1693  168.0713 C.3     1  UNL1        0.2525
     35 O         142.9766  141.6656  167.5082 O.3     1  UNL1       -0.4717
@<TRIPOS>BOND
     1    34    35    1
     2    35    25    1
     3    25    26   ar
     4    26    27   ar
     5    27    28   ar
     6    28     1    1
     7     1     2   ar
     8     2     3   ar
     9     3     4   ar
    10     4     5   ar
    11     5    11    1
    12    11    12    1
    13    12    13    1
    14    13    14    1
    15    14    15    1
    16    15    16    1
    17    16    17    1
    18     5     6   ar
    19     6     7   ar
    20     7    18    1
    21    18    19    1
    22    19    20    1
    23    20    21    1
    24    21    22    1
    25    21    23    1
    26    23    24    1
    27     7     8   ar
    28     8     9   ar
    29     9    10   ar
    30    28    29   ar
    31    29    30   ar
    32    30    31    1
    33    31    32    1
    34    30    25   ar
    35    10     1   ar
    36     9     4   ar
    37    16    11    1
    38    24    18    1
    39    32    33    1
@<TRIPOS>MOLECULE
*****
 35 39 0 0 0
SMALL
GASTEIGER

@<TRIPOS>ATOM
      1 C         140.5867  140.6473  163.2902 C.ar    1  UNL1        0.0829
      2 C         140.5643  142.0514  162.7633 C.ar    1  UNL1        0.0193
      3 C         140.7351  142.3041  161.2946 C.ar    1  UNL1        0.0074
      4 C         140.9283  141.1526  160.3530 C.ar    1  UNL1        0.0676
      5 C         141.0991  141.4053  158.8842 C.ar    1  UNL1        0.1376
      6 N         141.2922  140.2538  157.9426 N.ar    1  UNL1       -0.1986
      7 C         141.3146  138.8496  158.4696 C.ar    1  UNL1        0.2227
      8 N         141.1437  138.5969  159.9383 N.ar    1  UNL1       -0.1944
      9 C         140.9506  139.7484  160.8799 C.ar    1  UNL1        0.1678
     10 N         140.7798  139.4957  162.3486 N.ar    1  UNL1       -0.2264
     11 N         141.0768  142.8095  158.3573 N.pl3   1  UNL1       -0.2897
     12 C         139.7806  143.4270  157.9228 C.3     1  UNL1        0.1242
     13 C         139.7584  144.8313  157.3958 C.3     1  UNL1        0.1636
     14 O         141.0321  145.6179  157.3033 O.3     1  UNL1       -0.3502
     15 C         142.3283  145.0004  157.7378 C.3     1  UNL1        0.1618
     16 C         142.3506  143.5962  158.2648 C.3     1  UNL1        0.1038
     17 C         143.6467  142.9787  158.6992 C.3     1  UNL1        0.0241
     18 N         141.5077  137.6981  157.5280 N.pl3   1  UNL1       -0.2753
     19 C         142.7435  136.8528  157.6203 C.3     1  UNL1        0.1109
     20 C         142.9366  135.7013  156.6787 C.3     1  UNL1        0.0939
     21 N         141.8940  135.3950  155.6447 N.3     1  UNL1       -0.2686
     22 C         142.0871  134.2435  154.7030 C.3     1  UNL1        0.0897
     23 C         140.6582  136.2402  155.5524 C.3     1  UNL1        0.0939
     24 C         140.4651  137.3917  156.4940 C.3     1  UNL1        0.1109
     25 C         140.0743  139.8891  167.6963 C.ar    1  UNL1        0.1370
     26 C         138.9015  139.7547  166.7708 C.ar    1  UNL1        0.0367
     27 C         139.0723  140.0074  165.3021 C.ar    1  UNL1        0.0046
     28 C         140.4158  140.3945  164.7589 C.ar    1  UNL1        0.0177
     29 C         141.5886  140.5290  165.6844 C.ar    1  UNL1        0.0027
     30 C         141.4178  140.2763  167.1531 C.ar    1  UNL1        0.0410
     31 C         142.5906  140.4107  168.0786 C.3     1  UNL1        0.1666
     32 O         142.9372  139.2932  169.0172 O.3     1  UNL1       -0.3771
     33 H         142.2271  139.1868  169.6694 H       1  UNL1        0.2109
     34 C         138.9229  140.4496  169.9568 C.3     1  UNL1        0.2525
     35 O         139.9035  139.6364  169.1649 O.3     1  UNL1       -0.4717
@<TRIPOS>BOND
     1    34    35    1
     2    35    25    1
     3    25    26   ar
     4    26    27   ar
     5    27    28   ar
     6    28     1    1
     7     1     2   ar
     8     2     3   ar
     9     3     4   ar
    10     4     5   ar
    11     5    11    1
    12    11    12    1
    13    12    13    1
    14    13    14    1
    15    14    15    1
    16    15    16    1
    17    16    17    1
    18     5     6   ar
    19     6     7   ar
    20     7    18    1
    21    18    19    1
    22    19    20    1
    23    20    21    1
    24    21    22    1
    25    21    23    1
    26    23    24    1
    27     7     8   ar
    28     8     9   ar
    29     9    10   ar
    30    28    29   ar
    31    29    30   ar
    32    30    31    1
    33    31    32    1
    34    30    25   ar
    35    10     1   ar
    36     9     4   ar
    37    16    11    1
    38    24    18    1
    39    32    33    1
@<TRIPOS>MOLECULE
*****
 35 39 0 0 0
SMALL
GASTEIGER

@<TRIPOS>ATOM
      1 C         139.1223  144.8727  155.3003 C.ar    1  UNL1        0.0829
      2 C         138.9139  143.8323  154.2401 C.ar    1  UNL1        0.0193
      3 C         138.6245  142.4128  154.6289 C.ar    1  UNL1        0.0074
      4 C         138.5435  142.0337  156.0779 C.ar    1  UNL1        0.0676
      5 C         138.2541  140.6141  156.4667 C.ar    1  UNL1        0.1376
      6 N         138.1732  140.2350  157.9158 N.ar    1  UNL1       -0.1986
      7 C         138.3817  141.2754  158.9760 C.ar    1  UNL1        0.2227
      8 N         138.6711  142.6949  158.5872 N.ar    1  UNL1       -0.1944
      9 C         138.7520  143.0740  157.1381 C.ar    1  UNL1        0.1678
     10 N         139.0414  144.4935  156.7493 N.ar    1  UNL1       -0.2264
     11 N         138.0457  139.5737  155.4065 N.pl3   1  UNL1       -0.2897
     12 C         139.1883  138.7027  154.9755 C.3     1  UNL1        0.1242
     13 C         138.9798  137.6623  153.9152 C.3     1  UNL1        0.1636
     14 O         137.6287  137.4929  153.2860 O.3     1  UNL1       -0.3502
     15 C         136.4861  138.3639  153.7170 C.3     1  UNL1        0.1618
     16 C         136.6946  139.4043  154.7773 C.3     1  UNL1        0.1038
     17 C         135.5519  140.2753  155.2083 C.3     1  UNL1        0.0241
     18 N         138.3007  140.8963  160.4250 N.pl3   1  UNL1       -0.2753
     19 C         138.3008  141.9624  161.4804 C.3     1  UNL1        0.1109
     20 C         138.2199  141.5832  162.9294 C.3     1  UNL1        0.0939
     21 N         138.1388  140.1381  163.3231 N.3     1  UNL1       -0.2686
     22 C         138.0579  139.7589  164.7722 C.3     1  UNL1        0.0897
     23 C         138.1387  139.0721  162.2678 C.3     1  UNL1        0.0939
     24 C         138.2197  139.4512  160.8188 C.3     1  UNL1        0.1109
     25 C         139.9905  149.1314  154.1340 C.ar    1  UNL1        0.1370
     26 C         140.6280  148.0024  153.3797 C.ar    1  UNL1        0.0367
     27 C         140.3386  146.5828  153.7685 C.ar    1  UNL1        0.0046
     28 C         139.4117  146.2923  154.9115 C.ar    1  UNL1        0.0177
     29 C         138.7743  147.4213  155.6658 C.ar    1  UNL1        0.0027
     30 C         139.0637  148.8408  155.2771 C.ar    1  UNL1        0.0410
     31 C         138.4262  149.9698  156.0314 C.3     1  UNL1        0.1666
     32 O         139.2738  151.0813  156.5756 O.3     1  UNL1       -0.3771
     33 H         139.8581  150.7333  157.2673 H       1  UNL1        0.2109
     34 C         139.4506  151.2240  152.6921 C.3     1  UNL1        0.2525
     35 O         140.2799  150.5509  153.7452 O.3     1  UNL1       -0.4717
@<TRIPOS>BOND
     1    34    35    1
     2    35    25    1
     3    25    26   ar
     4    26    27   ar
     5    27    28   ar
     6    28     1    1
     7     1     2   ar
     8     2     3   ar
     9     3     4   ar
    10     4     5   ar
    11     5    11    1
    12    11    12    1
    13    12    13    1
    14    13    14    1
    15    14    15    1
    16    15    16    1
    17    16    17    1
    18     5     6   ar
    19     6     7   ar
    20     7    18    1
    21    18    19    1
    22    19    20    1
    23    20    21    1
    24    21    22    1
    25    21    23    1
    26    23    24    1
    27     7     8   ar
    28     8     9   ar
    29     9    10   ar
    30    28    29   ar
    31    29    30   ar
    32    30    31    1
    33    31    32    1
    34    30    25   ar
    35    10     1   ar
    36     9     4   ar
    37    16    11    1
    38    24    18    1
    39    32    33    1
@<TRIPOS>MOLECULE
*****
 35 39 0 0 0
SMALL
GASTEIGER

@<TRIPOS>ATOM
      1 C         142.5110  137.3959  157.5844 C.ar    1  UNL1        0.0829
      2 C         142.2132  138.6910  156.8887 C.ar    1  UNL1        0.0193
      3 C         142.0066  139.9423  157.6895 C.ar    1  UNL1        0.0074
      4 C         142.0980  139.8987  159.1861 C.ar    1  UNL1        0.0676
      5 C         141.8915  141.1501  159.9870 C.ar    1  UNL1        0.1376
      6 N         141.9828  141.1064  161.4835 N.ar    1  UNL1       -0.1986
      7 C         142.2807  139.8113  162.1793 C.ar    1  UNL1        0.2227
      8 N         142.4872  138.5599  161.3784 N.ar    1  UNL1       -0.1944
      9 C         142.3959  138.6036  159.8818 C.ar    1  UNL1        0.1678
     10 N         142.6024  137.3523  159.0810 N.ar    1  UNL1       -0.2264
     11 N         141.5936  142.4451  159.2912 N.pl3   1  UNL1       -0.2897
     12 C         140.1755  142.9148  159.1556 C.3     1  UNL1        0.1242
     13 C         139.8776  144.2099  158.4598 C.3     1  UNL1        0.1636
     14 O         140.9978  145.0353  157.8997 O.3     1  UNL1       -0.3502
     15 C         142.4160  144.5657  158.0354 C.3     1  UNL1        0.1618
     16 C         142.7138  143.2707  158.7311 C.3     1  UNL1        0.1038
     17 C         144.1320  142.8010  158.8668 C.3     1  UNL1        0.0241
     18 N         142.3721  139.7676  163.6758 N.pl3   1  UNL1       -0.2753
     19 C         141.8028  140.8879  164.4950 C.3     1  UNL1        0.1109
     20 C         141.8942  140.8442  165.9916 C.3     1  UNL1        0.0939
     21 N         142.5548  139.6802  166.6690 N.3     1  UNL1       -0.2686
     22 C         142.6462  139.6365  168.1656 C.3     1  UNL1        0.0897
     23 C         143.1240  138.5600  165.8498 C.3     1  UNL1        0.0939
     24 C         143.0327  138.6037  164.3533 C.3     1  UNL1        0.1109
     25 C         143.1307  133.6416  155.1819 C.ar    1  UNL1        0.1370
     26 C         142.3683  134.7915  154.5932 C.ar    1  UNL1        0.0367
     27 C         142.1618  136.0430  155.3941 C.ar    1  UNL1        0.0046
     28 C         142.7176  136.1445  156.7835 C.ar    1  UNL1        0.0177
     29 C         143.4800  134.9946  157.3722 C.ar    1  UNL1        0.0027
     30 C         143.6865  133.7432  156.5715 C.ar    1  UNL1        0.0410
     31 C         144.4489  132.5934  157.1602 C.3     1  UNL1        0.1666
     32 O         145.5508  131.9442  156.3763 O.3     1  UNL1       -0.3771
     33 H         145.1777  131.5082  155.5943 H       1  UNL1        0.2109
     34 C         142.1547  131.5895  153.9228 C.3     1  UNL1        0.2525
     35 O         143.3373  132.3902  154.3811 O.3     1  UNL1       -0.4717
@<TRIPOS>BOND
     1    34    35    1
     2    35    25    1
     3    25    26   ar
     4    26    27   ar
     5    27    28   ar
     6    28     1    1
     7     1     2   ar
     8     2     3   ar
     9     3     4   ar
    10     4     5   ar
    11     5    11    1
    12    11    12    1
    13    12    13    1
    14    13    14    1
    15    14    15    1
    16    15    16    1
    17    16    17    1
    18     5     6   ar
    19     6     7   ar
    20     7    18    1
    21    18    19    1
    22    19    20    1
    23    20    21    1
    24    21    22    1
    25    21    23    1
    26    23    24    1
    27     7     8   ar
    28     8     9   ar
    29     9    10   ar
    30    28    29   ar
    31    29    30   ar
    32    30    31    1
    33    31    32    1
    34    30    25   ar
    35    10     1   ar
    36     9     4   ar
    37    16    11    1
    38    24    18    1
    39    32    33    1
