@<TRIPOS>MOLECULE
*****
 36 40 0 0 0
SMALL
GASTEIGER

@<TRIPOS>ATOM
      1 C         141.0727  139.3711  159.9220 C.ar    1  UNL1        0.1233
      2 C         141.2019  138.9303  161.3500 C.ar    1  UNL1        0.1180
      3 N         141.0426  140.1386  162.2244 N.ar    1  UNL1       -0.2233
      4 N         140.8150  141.3262  161.3369 N.ar    1  UNL1       -0.0634
      5 N         140.8336  140.8519  159.9139 N.ar    1  UNL1       -0.1287
      6 C         141.1008  140.1562  163.7232 C.3     1  UNL1        0.1834
      7 C         142.4330  140.5034  164.3187 C.3     1  UNL1        0.0386
      8 C         142.8124  140.6044  165.7664 C.3     1  UNL1        0.0301
      9 C         141.9535  140.3831  166.9761 C.ar    1  UNL1       -0.0084
     10 C         142.7292  140.5868  168.2437 C.ar    1  UNL1       -0.0030
     11 C         142.0543  140.4136  169.5720 C.ar    1  UNL1       -0.0002
     12 C         140.6037  140.0367  169.6327 C.ar    1  UNL1        0.0013
     13 C         139.8280  139.8330  168.3651 C.ar    1  UNL1        0.0146
     14 C         140.5029  140.0062  167.0368 C.ar    1  UNL1        0.0502
     15 N         139.5530  139.7575  165.9028 N.am    1  UNL1       -0.2492
     16 C         139.8190  139.8242  164.4281 C.2     1  UNL1        0.2520
     17 O         138.7621  139.5478  163.4003 O.2     1  UNL1       -0.2724
     18 C         138.1517  139.3939  166.2956 C.3     1  UNL1        0.2016
     19 C         137.8133  137.9730  166.6371 C.3     1  UNL1        0.4160
     20 F         137.4748  136.5522  166.9786 F       1  UNL1       -0.1682
     21 F         138.6392  137.3256  165.5654 F       1  UNL1       -0.1682
     22 F         136.9395  138.4508  167.7589 F       1  UNL1       -0.1682
     23 C         140.0221  137.2554  156.7330 C.ar    1  UNL1        0.1547
     24 C         139.9286  138.1400  157.9407 C.ar    1  UNL1        0.0400
     25 C         141.1662  138.4865  158.7143 C.ar    1  UNL1        0.0241
     26 C         142.4972  137.9483  158.2801 C.ar    1  UNL1        0.0033
     27 C         142.5907  137.0636  157.0724 C.ar    1  UNL1        0.0207
     28 C         141.3532  136.7172  156.2989 C.ar    1  UNL1        0.0994
     29 N         141.4468  135.8325  155.0911 N.ar    1  UNL1       -0.2839
     30 C         141.6271  136.2909  153.6742 C.ar    1  UNL1        0.1826
     31 N         141.6682  135.0758  152.7957 N.ar    1  UNL1       -0.2280
     32 C         141.5132  133.8665  153.6695 C.ar    1  UNL1        0.0786
     33 C         141.4978  132.4400  153.2060 C.3     1  UNL1        0.0538
     34 C         141.3764  134.3342  155.0881 C.ar    1  UNL1        0.0963
     35 C         138.3426  137.7809  154.8218 C.3     1  UNL1        0.2525
     36 O         138.7845  136.9090  155.9595 O.3     1  UNL1       -0.4700
@<TRIPOS>BOND
     1    35    36    1
     2    36    23    1
     3    23    24   ar
     4    24    25   ar
     5    25     1    1
     6     1     2   ar
     7     2     3   ar
     8     3     6    1
     9     6     7    1
    10     7     8    1
    11     8     9    1
    12     9    10   ar
    13    10    11   ar
    14    11    12   ar
    15    12    13   ar
    16    13    14   ar
    17    14    15    1
    18    15    18    1
    19    18    19    1
    20    19    20    1
    21    19    21    1
    22    19    22    1
    23    15    16   am
    24    16    17    2
    25     3     4   ar
    26     4     5   ar
    27    25    26   ar
    28    26    27   ar
    29    27    28   ar
    30    28    29    1
    31    29    30   ar
    32    30    31   ar
    33    31    32   ar
    34    32    33    1
    35    32    34   ar
    36    28    23   ar
    37    34    29   ar
    38     5     1   ar
    39    16     6    1
    40    14     9   ar
@<TRIPOS>MOLECULE
*****
 36 40 0 0 0
SMALL
GASTEIGER

@<TRIPOS>ATOM
      1 C         142.0078  138.6569  159.3146 C.ar    1  UNL1        0.1233
      2 C         141.7095  138.2921  160.7387 C.ar    1  UNL1        0.1180
      3 N         141.9334  139.5097  161.5858 N.ar    1  UNL1       -0.2233
      4 N         142.3700  140.6269  160.6852 N.ar    1  UNL1       -0.0634
      5 N         142.4160  140.0999  159.2815 N.ar    1  UNL1       -0.1287
      6 C         141.7524  139.5950  163.0724 C.3     1  UNL1        0.1834
      7 C         142.9512  139.2279  163.8960 C.3     1  UNL1        0.0386
      8 C         143.0901  139.2113  165.3895 C.3     1  UNL1        0.0301
      9 C         142.0648  139.5576  166.4282 C.ar    1  UNL1       -0.0084
     10 C         142.6169  139.4072  167.8147 C.ar    1  UNL1       -0.0030
     11 C         141.7514  139.7053  169.0030 C.ar    1  UNL1       -0.0002
     12 C         140.3338  140.1537  168.8047 C.ar    1  UNL1        0.0013
     13 C         139.7817  140.3041  167.4181 C.ar    1  UNL1        0.0146
     14 C         140.6472  140.0060  166.2299 C.ar    1  UNL1        0.0502
     15 N         139.9049  140.2189  164.9439 N.am    1  UNL1       -0.2492
     16 C         140.3967  140.0360  163.5387 C.2     1  UNL1        0.2520
     17 O         139.5336  140.2890  162.3383 O.2     1  UNL1       -0.2724
     18 C         138.4826  140.6751  165.0814 C.3     1  UNL1        0.2016
     19 C         138.0899  142.0519  164.6339 C.3     1  UNL1        0.4160
     20 F         137.6972  143.4286  164.1864 F       1  UNL1       -0.1682
     21 F         139.0645  142.8068  165.4883 F       1  UNL1       -0.1682
     22 F         137.0596  141.4603  163.7180 F       1  UNL1       -0.1682
     23 C         142.8706  135.7745  156.7269 C.ar    1  UNL1        0.1547
     24 C         142.9642  136.6916  157.9101 C.ar    1  UNL1        0.0400
     25 C         141.9142  137.7397  158.1314 C.ar    1  UNL1        0.0241
     26 C         140.7707  137.8707  157.1696 C.ar    1  UNL1        0.0033
     27 C         140.6771  136.9535  155.9864 C.ar    1  UNL1        0.0207
     28 C         141.7270  135.9054  155.7650 C.ar    1  UNL1        0.0994
     29 N         141.6334  134.9882  154.5818 N.ar    1  UNL1       -0.2839
     30 C         141.8688  135.3690  153.1501 C.ar    1  UNL1        0.1826
     31 N         141.6689  134.1454  152.3061 N.ar    1  UNL1       -0.2280
     32 C         141.3099  133.0082  153.2159 C.ar    1  UNL1        0.0786
     33 C         141.0231  131.5977  152.7935 C.3     1  UNL1        0.0538
     34 C         141.2880  133.5291  154.6224 C.ar    1  UNL1        0.0963
     35 C         144.0654  133.5929  157.4773 C.3     1  UNL1        0.2525
     36 O         143.9205  134.7263  156.5055 O.3     1  UNL1       -0.4700
@<TRIPOS>BOND
     1    35    36    1
     2    36    23    1
     3    23    24   ar
     4    24    25   ar
     5    25     1    1
     6     1     2   ar
     7     2     3   ar
     8     3     6    1
     9     6     7    1
    10     7     8    1
    11     8     9    1
    12     9    10   ar
    13    10    11   ar
    14    11    12   ar
    15    12    13   ar
    16    13    14   ar
    17    14    15    1
    18    15    18    1
    19    18    19    1
    20    19    20    1
    21    19    21    1
    22    19    22    1
    23    15    16   am
    24    16    17    2
    25     3     4   ar
    26     4     5   ar
    27    25    26   ar
    28    26    27   ar
    29    27    28   ar
    30    28    29    1
    31    29    30   ar
    32    30    31   ar
    33    31    32   ar
    34    32    33    1
    35    32    34   ar
    36    28    23   ar
    37    34    29   ar
    38     5     1   ar
    39    16     6    1
    40    14     9   ar
@<TRIPOS>MOLECULE
*****
 36 40 0 0 0
SMALL
GASTEIGER

@<TRIPOS>ATOM
      1 C         144.2823  142.3292  159.8191 C.ar    1  UNL1        0.1233
      2 C         144.6035  141.9039  161.2212 C.ar    1  UNL1        0.1180
      3 N         143.3677  142.0785  162.0532 N.ar    1  UNL1       -0.2233
      4 N         142.2827  142.6118  161.1653 N.ar    1  UNL1       -0.0634
      5 N         142.8479  142.7667  159.7845 N.ar    1  UNL1       -0.1287
      6 C         143.2394  141.7735  163.5163 C.3     1  UNL1        0.1834
      7 C         143.5252  142.9149  164.4466 C.3     1  UNL1        0.0386
      8 C         143.4844  142.9320  165.9459 C.3     1  UNL1        0.0301
      9 C         143.1478  141.8120  166.8853 C.ar    1  UNL1       -0.0084
     10 C         143.2262  142.2547  168.3163 C.ar    1  UNL1       -0.0030
     11 C         142.9256  141.2837  169.4193 C.ar    1  UNL1       -0.0002
     12 C         142.5467  139.8699  169.0912 C.ar    1  UNL1        0.0013
     13 C         142.4683  139.4272  167.6602 C.ar    1  UNL1        0.0146
     14 C         142.7689  140.3983  166.5573 C.ar    1  UNL1        0.0502
     15 N         142.6329  139.7553  165.2089 N.am    1  UNL1       -0.2492
     16 C         142.8423  140.3673  163.8555 C.2     1  UNL1        0.2520
     17 O         142.6686  139.5955  162.5810 O.2     1  UNL1       -0.2724
     18 C         142.2349  138.3091  165.2146 C.3     1  UNL1        0.2016
     19 C         140.8616  137.9073  164.7641 C.3     1  UNL1        0.4160
     20 F         139.4884  137.5056  164.3136 F       1  UNL1       -0.1682
     21 F         140.1014  138.9164  165.5727 F       1  UNL1       -0.1682
     22 F         141.4590  136.8413  163.8941 F       1  UNL1       -0.1682
     23 C         145.8473  141.5118  156.2649 C.ar    1  UNL1        0.1547
     24 C         144.9004  141.5221  157.4281 C.ar    1  UNL1        0.0400
     25 C         145.2292  142.3189  158.6558 C.ar    1  UNL1        0.0241
     26 C         146.5049  143.1052  158.7201 C.ar    1  UNL1        0.0033
     27 C         147.4518  143.0949  157.5569 C.ar    1  UNL1        0.0207
     28 C         147.1230  142.2982  156.3293 C.ar    1  UNL1        0.0994
     29 N         148.0700  142.2878  155.1660 N.ar    1  UNL1       -0.2839
     30 C         147.8797  143.0145  153.8676 C.ar    1  UNL1        0.1826
     31 N         149.0656  142.7248  152.9961 N.ar    1  UNL1       -0.2280
     32 C         149.9889  141.8190  153.7557 C.ar    1  UNL1        0.0786
     33 C         151.2977  141.2782  153.2612 C.3     1  UNL1        0.0538
     34 C         149.3736  141.5489  155.0968 C.ar    1  UNL1        0.0963
     35 C         145.2074  139.2523  155.1536 C.3     1  UNL1        0.2525
     36 O         145.5185  140.7150  155.0373 O.3     1  UNL1       -0.4700
@<TRIPOS>BOND
     1    35    36    1
     2    36    23    1
     3    23    24   ar
     4    24    25   ar
     5    25     1    1
     6     1     2   ar
     7     2     3   ar
     8     3     6    1
     9     6     7    1
    10     7     8    1
    11     8     9    1
    12     9    10   ar
    13    10    11   ar
    14    11    12   ar
    15    12    13   ar
    16    13    14   ar
    17    14    15    1
    18    15    18    1
    19    18    19    1
    20    19    20    1
    21    19    21    1
    22    19    22    1
    23    15    16   am
    24    16    17    2
    25     3     4   ar
    26     4     5   ar
    27    25    26   ar
    28    26    27   ar
    29    27    28   ar
    30    28    29    1
    31    29    30   ar
    32    30    31   ar
    33    31    32   ar
    34    32    33    1
    35    32    34   ar
    36    28    23   ar
    37    34    29   ar
    38     5     1   ar
    39    16     6    1
    40    14     9   ar
@<TRIPOS>MOLECULE
*****
 36 40 0 0 0
SMALL
GASTEIGER

@<TRIPOS>ATOM
      1 C         142.6953  137.7080  157.6724 C.ar    1  UNL1        0.1233
      2 C         141.9150  138.1627  158.8701 C.ar    1  UNL1        0.1180
      3 N         142.4755  139.4808  159.3155 N.ar    1  UNL1       -0.2233
      4 N         143.6022  139.8408  158.3931 N.ar    1  UNL1       -0.0634
      5 N         143.7381  138.7452  157.3776 N.ar    1  UNL1       -0.1287
      6 C         141.9939  140.2958  160.4791 C.3     1  UNL1        0.1834
      7 C         140.7748  141.1327  160.2272 C.3     1  UNL1        0.0386
      8 C         140.0559  142.0466  161.1748 C.3     1  UNL1        0.0301
      9 C         140.3783  142.3494  162.6081 C.ar    1  UNL1       -0.0084
     10 C         139.4007  143.3234  163.1958 C.ar    1  UNL1       -0.0030
     11 C         139.5442  143.7609  164.6234 C.ar    1  UNL1       -0.0002
     12 C         140.6653  143.2245  165.4632 C.ar    1  UNL1        0.0013
     13 C         141.6429  142.2505  164.8755 C.ar    1  UNL1        0.0146
     14 C         141.4995  141.8129  163.4479 C.ar    1  UNL1        0.0502
     15 N         142.5750  140.8412  163.0618 N.am    1  UNL1       -0.2492
     16 C         142.7951  140.1660  161.7406 C.2     1  UNL1        0.2520
     17 O         143.9238  139.2085  161.4975 O.2     1  UNL1       -0.2724
     18 C         143.5608  140.4996  164.1395 C.3     1  UNL1        0.2016
     19 C         144.9824  140.9659  164.0308 C.3     1  UNL1        0.4160
     20 F         146.4039  141.4322  163.9221 F       1  UNL1       -0.1682
     21 F         144.6805  142.3964  163.6954 F       1  UNL1       -0.1682
     22 F         145.4612  139.5819  164.3554 F       1  UNL1       -0.1682
     23 C         143.1233  133.9777  156.3874 C.ar    1  UNL1        0.1547
     24 C         143.3467  135.2466  157.1554 C.ar    1  UNL1        0.0400
     25 C         142.4720  136.4391  156.9044 C.ar    1  UNL1        0.0241
     26 C         141.3739  136.3626  155.8854 C.ar    1  UNL1        0.0033
     27 C         141.1506  135.0936  155.1174 C.ar    1  UNL1        0.0207
     28 C         142.0253  133.9012  155.3684 C.ar    1  UNL1        0.0994
     29 N         141.8019  132.6322  154.6003 N.ar    1  UNL1       -0.2839
     30 C         142.5843  132.1759  153.4047 C.ar    1  UNL1        0.1826
     31 N         142.0228  130.8585  152.9585 N.ar    1  UNL1       -0.2280
     32 C         140.8934  130.5006  153.8784 C.ar    1  UNL1        0.0786
     33 C         140.0488  129.2636  153.7978 C.3     1  UNL1        0.0538
     34 C         140.7568  131.5968  154.8931 C.ar    1  UNL1        0.0963
     35 C         144.8283  132.7135  157.8856 C.3     1  UNL1        0.2525
     36 O         143.9980  132.7853  156.6385 O.3     1  UNL1       -0.4700
@<TRIPOS>BOND
     1    35    36    1
     2    36    23    1
     3    23    24   ar
     4    24    25   ar
     5    25     1    1
     6     1     2   ar
     7     2     3   ar
     8     3     6    1
     9     6     7    1
    10     7     8    1
    11     8     9    1
    12     9    10   ar
    13    10    11   ar
    14    11    12   ar
    15    12    13   ar
    16    13    14   ar
    17    14    15    1
    18    15    18    1
    19    18    19    1
    20    19    20    1
    21    19    21    1
    22    19    22    1
    23    15    16   am
    24    16    17    2
    25     3     4   ar
    26     4     5   ar
    27    25    26   ar
    28    26    27   ar
    29    27    28   ar
    30    28    29    1
    31    29    30   ar
    32    30    31   ar
    33    31    32   ar
    34    32    33    1
    35    32    34   ar
    36    28    23   ar
    37    34    29   ar
    38     5     1   ar
    39    16     6    1
    40    14     9   ar
@<TRIPOS>MOLECULE
*****
 36 40 0 0 0
SMALL
GASTEIGER

@<TRIPOS>ATOM
      1 C         139.8040  143.3925  159.8130 C.ar    1  UNL1        0.1233
      2 C         140.4995  143.6472  161.1174 C.ar    1  UNL1        0.1180
      3 N         140.0179  142.6275  162.1065 N.ar    1  UNL1       -0.2233
      4 N         139.0247  141.7425  161.4133 N.ar    1  UNL1       -0.0634
      5 N         138.8925  142.2153  159.9959 N.ar    1  UNL1       -0.1287
      6 C         140.4530  142.5129  163.5374 C.3     1  UNL1        0.1834
      7 C         139.5766  143.2015  164.5413 C.3     1  UNL1        0.0386
      8 C         139.7378  143.2721  166.0309 C.3     1  UNL1        0.0301
      9 C         140.8151  142.6716  166.8846 C.ar    1  UNL1       -0.0084
     10 C         140.6008  142.9821  168.3364 C.ar    1  UNL1       -0.0030
     11 C         141.5688  142.4731  169.3630 C.ar    1  UNL1       -0.0002
     12 C         142.7510  141.6536  168.9378 C.ar    1  UNL1        0.0013
     13 C         142.9653  141.3432  167.4861 C.ar    1  UNL1        0.0146
     14 C         141.9974  141.8521  166.4595 C.ar    1  UNL1        0.0502
     15 N         142.3943  141.4308  165.0756 N.am    1  UNL1       -0.2492
     16 C         141.7070  141.7249  163.7751 C.2     1  UNL1        0.2520
     17 O         142.2239  141.2331  162.4557 O.2     1  UNL1       -0.2724
     18 C         143.6437  140.6064  164.9795 C.3     1  UNL1        0.2016
     19 C         144.8734  141.1800  164.3400 C.3     1  UNL1        0.4160
     20 F         146.1031  141.7536  163.7006 F       1  UNL1       -0.1682
     21 F         144.7342  142.5689  164.8891 F       1  UNL1       -0.1682
     22 F         145.1647  139.8510  163.7082 F       1  UNL1       -0.1682
     23 C         139.4043  144.5869  156.0497 C.ar    1  UNL1        0.1547
     24 C         139.2205  143.8023  157.3147 C.ar    1  UNL1        0.0400
     25 C         139.9878  144.1771  158.5479 C.ar    1  UNL1        0.0241
     26 C         140.9388  145.3367  158.5160 C.ar    1  UNL1        0.0033
     27 C         141.1225  146.1213  157.2509 C.ar    1  UNL1        0.0207
     28 C         140.3553  145.7465  156.0178 C.ar    1  UNL1        0.0994
     29 N         140.5391  146.5312  154.7526 N.ar    1  UNL1       -0.2839
     30 C         141.2930  146.0801  153.5368 C.ar    1  UNL1        0.1826
     31 N         141.2211  147.1749  152.5141 N.ar    1  UNL1       -0.2280
     32 C         140.4227  148.3026  153.0976 C.ar    1  UNL1        0.0786
     33 C         140.1021  149.6004  152.4172 C.3     1  UNL1        0.0538
     34 C         140.0012  147.9049  154.4811 C.ar    1  UNL1        0.0963
     35 C         137.1444  144.3573  154.7887 C.3     1  UNL1        0.2525
     36 O         138.6370  144.2121  154.8164 O.3     1  UNL1       -0.4700
@<TRIPOS>BOND
     1    35    36    1
     2    36    23    1
     3    23    24   ar
     4    24    25   ar
     5    25     1    1
     6     1     2   ar
     7     2     3   ar
     8     3     6    1
     9     6     7    1
    10     7     8    1
    11     8     9    1
    12     9    10   ar
    13    10    11   ar
    14    11    12   ar
    15    12    13   ar
    16    13    14   ar
    17    14    15    1
    18    15    18    1
    19    18    19    1
    20    19    20    1
    21    19    21    1
    22    19    22    1
    23    15    16   am
    24    16    17    2
    25     3     4   ar
    26     4     5   ar
    27    25    26   ar
    28    26    27   ar
    29    27    28   ar
    30    28    29    1
    31    29    30   ar
    32    30    31   ar
    33    31    32   ar
    34    32    33    1
    35    32    34   ar
    36    28    23   ar
    37    34    29   ar
    38     5     1   ar
    39    16     6    1
    40    14     9   ar
@<TRIPOS>MOLECULE
*****
 36 40 0 0 0
SMALL
GASTEIGER

@<TRIPOS>ATOM
      1 C         143.4011  139.7021  160.2211 C.ar    1  UNL1        0.1233
      2 C         143.1359  140.2900  161.5753 C.ar    1  UNL1        0.1180
      3 N         142.6142  139.1976  162.4609 N.ar    1  UNL1       -0.2233
      4 N         142.5570  137.9344  161.6540 N.ar    1  UNL1       -0.0634
      5 N         143.0433  138.2462  160.2697 N.ar    1  UNL1       -0.1287
      6 C         142.2192  139.3428  163.9007 C.3     1  UNL1        0.1834
      7 C         143.3135  139.1179  164.9017 C.3     1  UNL1        0.0386
      8 C         143.2409  139.1884  166.3982 C.3     1  UNL1        0.0301
      9 C         142.0561  139.5011  167.2635 C.ar    1  UNL1       -0.0084
     10 C         142.4164  139.4672  168.7192 C.ar    1  UNL1       -0.0030
     11 C         141.3719  139.7526  169.7571 C.ar    1  UNL1       -0.0002
     12 C         139.9671  140.0721  169.3395 C.ar    1  UNL1        0.0013
     13 C         139.6068  140.1061  167.8838 C.ar    1  UNL1        0.0146
     14 C         140.6513  139.8206  166.8458 C.ar    1  UNL1        0.0502
     15 N         140.0844  139.9063  165.4597 N.am    1  UNL1       -0.2492
     16 C         140.7820  139.6936  164.1490 C.2     1  UNL1        0.2520
     17 O         140.0808  139.8136  162.8285 O.2     1  UNL1       -0.2724
     18 C         138.6269  140.2500  165.3729 C.3     1  UNL1        0.2016
     19 C         138.1988  141.5556  164.7709 C.3     1  UNL1        0.4160
     20 F         137.7707  142.8611  164.1690 F       1  UNL1       -0.1682
     21 F         139.0635  142.4403  165.6191 F       1  UNL1       -0.1682
     22 F         137.2749  140.8245  163.8424 F       1  UNL1       -0.1682
     23 C         144.5734  140.4822  156.5107 C.ar    1  UNL1        0.1547
     24 C         144.0435  139.7438  157.7040 C.ar    1  UNL1        0.0400
     25 C         143.9310  140.4404  159.0277 C.ar    1  UNL1        0.0241
     26 C         144.3483  141.8752  159.1581 C.ar    1  UNL1        0.0033
     27 C         144.8782  142.6135  157.9647 C.ar    1  UNL1        0.0207
     28 C         144.9908  141.9170  156.6411 C.ar    1  UNL1        0.0994
     29 N         145.5207  142.6554  155.4477 N.ar    1  UNL1       -0.2839
     30 C         144.6972  143.2937  154.3686 C.ar    1  UNL1        0.1826
     31 N         145.6348  143.9178  153.3780 N.ar    1  UNL1       -0.2280
     32 C         147.0377  143.6653  153.8448 C.ar    1  UNL1        0.0786
     33 C         148.2911  144.1142  153.1538 C.3     1  UNL1        0.0538
     34 C         146.9673  142.8851  155.1240 C.ar    1  UNL1        0.0963
     35 C         144.2822  138.3466  155.0600 C.3     1  UNL1        0.2525
     36 O         144.6860  139.7856  155.1870 O.3     1  UNL1       -0.4700
@<TRIPOS>BOND
     1    35    36    1
     2    36    23    1
     3    23    24   ar
     4    24    25   ar
     5    25     1    1
     6     1     2   ar
     7     2     3   ar
     8     3     6    1
     9     6     7    1
    10     7     8    1
    11     8     9    1
    12     9    10   ar
    13    10    11   ar
    14    11    12   ar
    15    12    13   ar
    16    13    14   ar
    17    14    15    1
    18    15    18    1
    19    18    19    1
    20    19    20    1
    21    19    21    1
    22    19    22    1
    23    15    16   am
    24    16    17    2
    25     3     4   ar
    26     4     5   ar
    27    25    26   ar
    28    26    27   ar
    29    27    28   ar
    30    28    29    1
    31    29    30   ar
    32    30    31   ar
    33    31    32   ar
    34    32    33    1
    35    32    34   ar
    36    28    23   ar
    37    34    29   ar
    38     5     1   ar
    39    16     6    1
    40    14     9   ar
@<TRIPOS>MOLECULE
*****
 36 40 0 0 0
SMALL
GASTEIGER

@<TRIPOS>ATOM
      1 C         143.2907  139.7951  161.1633 C.ar    1  UNL1        0.1233
      2 C         142.8180  140.4877  162.4070 C.ar    1  UNL1        0.1180
      3 N         142.5017  139.4379  163.4306 N.ar    1  UNL1       -0.2233
      4 N         142.7790  138.0964  162.8195 N.ar    1  UNL1       -0.0634
      5 N         143.2666  138.3171  161.4182 N.ar    1  UNL1       -0.1287
      6 C         141.9969  139.6860  164.8211 C.3     1  UNL1        0.1834
      7 C         143.0167  140.1760  165.8060 C.3     1  UNL1        0.0386
      8 C         142.8304  140.5122  167.2559 C.3     1  UNL1        0.0301
      9 C         141.5784  140.4416  168.0791 C.ar    1  UNL1       -0.0084
     10 C         141.8287  140.8687  169.4950 C.ar    1  UNL1       -0.0030
     11 C         140.7040  140.8713  170.4875 C.ar    1  UNL1       -0.0002
     12 C         139.3291  140.4469  170.0640 C.ar    1  UNL1        0.0013
     13 C         139.0788  140.0199  168.6481 C.ar    1  UNL1        0.0146
     14 C         140.2035  140.0173  167.6556 C.ar    1  UNL1        0.0502
     15 N         139.7409  139.5587  166.3044 N.am    1  UNL1       -0.2492
     16 C         140.5390  139.4112  165.0429 C.2     1  UNL1        0.2520
     17 O         139.9370  138.9370  163.7534 O.2     1  UNL1       -0.2724
     18 C         138.2881  139.2002  166.2009 C.3     1  UNL1        0.2016
     19 C         137.8229  137.8315  166.6016 C.3     1  UNL1        0.4160
     20 F         137.3578  136.4629  167.0022 F       1  UNL1       -0.1682
     21 F         138.7094  137.0575  165.6715 F       1  UNL1       -0.1682
     22 F         136.8726  138.4433  167.5880 F       1  UNL1       -0.1682
     23 C         144.3381  140.3159  157.3710 C.ar    1  UNL1        0.1547
     24 C         143.9155  139.6478  158.6457 C.ar    1  UNL1        0.0400
     25 C         143.7133  140.4631  159.8885 C.ar    1  UNL1        0.0241
     26 C         143.9338  141.9465  159.8565 C.ar    1  UNL1        0.0033
     27 C         144.3564  142.6145  158.5817 C.ar    1  UNL1        0.0207
     28 C         144.5585  141.7993  157.3390 C.ar    1  UNL1        0.0994
     29 N         144.9811  142.4674  156.0642 N.ar    1  UNL1       -0.2839
     30 C         144.0691  143.1056  155.0588 C.ar    1  UNL1        0.1826
     31 N         144.9143  143.6472  153.9443 N.ar    1  UNL1       -0.2280
     32 C         146.3487  143.3439  154.2608 C.ar    1  UNL1        0.0786
     33 C         147.5338  143.7060  153.4156 C.3     1  UNL1        0.0538
     34 C         146.3901  142.6147  155.5710 C.ar    1  UNL1        0.0963
     35 C         143.5974  138.3796  155.8051 C.3     1  UNL1        0.2525
     36 O         144.5402  139.5006  156.1283 O.3     1  UNL1       -0.4700
@<TRIPOS>BOND
     1    35    36    1
     2    36    23    1
     3    23    24   ar
     4    24    25   ar
     5    25     1    1
     6     1     2   ar
     7     2     3   ar
     8     3     6    1
     9     6     7    1
    10     7     8    1
    11     8     9    1
    12     9    10   ar
    13    10    11   ar
    14    11    12   ar
    15    12    13   ar
    16    13    14   ar
    17    14    15    1
    18    15    18    1
    19    18    19    1
    20    19    20    1
    21    19    21    1
    22    19    22    1
    23    15    16   am
    24    16    17    2
    25     3     4   ar
    26     4     5   ar
    27    25    26   ar
    28    26    27   ar
    29    27    28   ar
    30    28    29    1
    31    29    30   ar
    32    30    31   ar
    33    31    32   ar
    34    32    33    1
    35    32    34   ar
    36    28    23   ar
    37    34    29   ar
    38     5     1   ar
    39    16     6    1
    40    14     9   ar
@<TRIPOS>MOLECULE
*****
 36 40 0 0 0
SMALL
GASTEIGER

@<TRIPOS>ATOM
      1 C         142.9002  137.3936  157.5649 C.ar    1  UNL1        0.1233
      2 C         142.6037  137.6590  159.0111 C.ar    1  UNL1        0.1180
      3 N         143.0343  139.0617  159.3228 N.ar    1  UNL1       -0.2233
      4 N         143.5969  139.6631  158.0691 N.ar    1  UNL1       -0.0634
      5 N         143.5140  138.6323  156.9827 N.ar    1  UNL1       -0.1287
      6 C         142.9220  139.7431  160.6543 C.3     1  UNL1        0.1834
      7 C         144.1619  139.7304  161.4985 C.3     1  UNL1        0.0386
      8 C         144.3706  140.3187  162.8625 C.3     1  UNL1        0.0301
      9 C         143.3912  141.0649  163.7191 C.ar    1  UNL1       -0.0084
     10 C         144.0090  141.4840  165.0201 C.ar    1  UNL1       -0.0030
     11 C         143.1967  142.2453  166.0253 C.ar    1  UNL1       -0.0002
     12 C         141.7665  142.5875  165.7296 C.ar    1  UNL1        0.0013
     13 C         141.1487  142.1685  164.4286 C.ar    1  UNL1        0.0146
     14 C         141.9610  141.4072  163.4234 C.ar    1  UNL1        0.0502
     15 N         141.1571  141.0877  162.1979 N.am    1  UNL1       -0.2492
     16 C         141.5847  140.3472  160.9655 C.2     1  UNL1        0.2520
     17 O         140.6638  140.1001  159.8076 O.2     1  UNL1       -0.2724
     18 C         139.7378  141.5731  162.2058 C.3     1  UNL1        0.2016
     19 C         138.6086  140.5879  162.2733 C.3     1  UNL1        0.4160
     20 F         137.4795  139.6028  162.3408 F       1  UNL1       -0.1682
     21 F         139.1981  139.7065  163.3342 F       1  UNL1       -0.1682
     22 F         137.8760  141.3550  161.2127 F       1  UNL1       -0.1682
     23 C         143.0343  133.5659  156.5255 C.ar    1  UNL1        0.1547
     24 C         143.3043  134.8452  157.2605 C.ar    1  UNL1        0.0400
     25 C         142.6302  136.1142  156.8299 C.ar    1  UNL1        0.0241
     26 C         141.6862  136.1037  155.6642 C.ar    1  UNL1        0.0033
     27 C         141.4162  134.8243  154.9293 C.ar    1  UNL1        0.0207
     28 C         142.0903  133.5555  155.3599 C.ar    1  UNL1        0.0994
     29 N         141.8202  132.2760  154.6248 N.ar    1  UNL1       -0.2839
     30 C         142.6157  131.7358  153.4735 C.ar    1  UNL1        0.1826
     31 N         141.9944  130.4382  153.0493 N.ar    1  UNL1       -0.2280
     32 C         140.8150  130.1763  153.9383 C.ar    1  UNL1        0.0786
     33 C         139.9033  128.9873  153.8662 C.3     1  UNL1        0.0538
     34 C         140.7074  131.3122  154.9121 C.ar    1  UNL1        0.0963
     35 C         144.9412  132.3545  157.8086 C.3     1  UNL1        0.2525
     36 O         143.7083  132.2969  156.9561 O.3     1  UNL1       -0.4700
@<TRIPOS>BOND
     1    35    36    1
     2    36    23    1
     3    23    24   ar
     4    24    25   ar
     5    25     1    1
     6     1     2   ar
     7     2     3   ar
     8     3     6    1
     9     6     7    1
    10     7     8    1
    11     8     9    1
    12     9    10   ar
    13    10    11   ar
    14    11    12   ar
    15    12    13   ar
    16    13    14   ar
    17    14    15    1
    18    15    18    1
    19    18    19    1
    20    19    20    1
    21    19    21    1
    22    19    22    1
    23    15    16   am
    24    16    17    2
    25     3     4   ar
    26     4     5   ar
    27    25    26   ar
    28    26    27   ar
    29    27    28   ar
    30    28    29    1
    31    29    30   ar
    32    30    31   ar
    33    31    32   ar
    34    32    33    1
    35    32    34   ar
    36    28    23   ar
    37    34    29   ar
    38     5     1   ar
    39    16     6    1
    40    14     9   ar
@<TRIPOS>MOLECULE
*****
 36 40 0 0 0
SMALL
GASTEIGER

@<TRIPOS>ATOM
      1 C         141.9289  142.5997  159.5765 C.ar    1  UNL1        0.1233
      2 C         142.1563  142.1578  160.9918 C.ar    1  UNL1        0.1180
      3 N         140.8923  142.4005  161.7621 N.ar    1  UNL1       -0.2233
      4 N         139.8836  142.9923  160.8228 N.ar    1  UNL1       -0.0634
      5 N         140.5242  143.1154  159.4720 N.ar    1  UNL1       -0.1287
      6 C         140.6750  142.1034  163.2162 C.3     1  UNL1        0.1834
      7 C         141.0116  143.2155  164.1650 C.3     1  UNL1        0.0386
      8 C         140.9062  143.2323  165.6612 C.3     1  UNL1        0.0301
      9 C         140.4383  142.1414  166.5782 C.ar    1  UNL1       -0.0084
     10 C         140.4892  142.5729  168.0139 C.ar    1  UNL1       -0.0030
     11 C         140.0620  141.6270  169.0968 C.ar    1  UNL1       -0.0002
     12 C         139.5838  140.2497  168.7441 C.ar    1  UNL1        0.0013
     13 C         139.5328  139.8183  167.3084 C.ar    1  UNL1        0.0146
     14 C         139.9601  140.7642  166.2254 C.ar    1  UNL1        0.0502
     15 N         139.8318  140.1377  164.8686 N.am    1  UNL1       -0.2492
     16 C         140.1499  140.7337  163.5293 C.2     1  UNL1        0.2520
     17 O         139.9703  139.9817  162.2439 O.2     1  UNL1       -0.2724
     18 C         139.3172  138.7288  164.8483 C.3     1  UNL1        0.2016
     19 C         140.2125  137.6097  164.4054 C.3     1  UNL1        0.4160
     20 F         141.1078  136.4906  163.9626 F       1  UNL1       -0.1682
     21 F         141.3484  137.9035  165.3399 F       1  UNL1       -0.1682
     22 F         139.1779  137.1762  163.4095 F       1  UNL1       -0.1682
     23 C         143.5568  142.9489  155.9741 C.ar    1  UNL1        0.1547
     24 C         142.5553  143.0118  157.0890 C.ar    1  UNL1        0.0400
     25 C         142.9303  142.5368  158.4616 C.ar    1  UNL1        0.0241
     26 C         144.3066  141.9990  158.7191 C.ar    1  UNL1        0.0033
     27 C         145.3081  141.9361  157.6041 C.ar    1  UNL1        0.0207
     28 C         144.9331  142.4110  156.2317 C.ar    1  UNL1        0.0994
     29 N         145.9346  142.3482  155.1166 N.ar    1  UNL1       -0.2839
     30 C         145.9982  141.2988  154.0467 C.ar    1  UNL1        0.1826
     31 N         147.1512  141.6257  153.1447 N.ar    1  UNL1       -0.2280
     32 C         147.8002  142.8771  153.6571 C.ar    1  UNL1        0.0786
     33 C         148.9919  143.5619  153.0563 C.3     1  UNL1        0.0538
     34 C         147.0483  143.3237  154.8758 C.ar    1  UNL1        0.0963
     35 C         143.1443  144.8928  154.3005 C.3     1  UNL1        0.2525
     36 O         143.1818  143.4239  154.6016 O.3     1  UNL1       -0.4700
@<TRIPOS>BOND
     1    35    36    1
     2    36    23    1
     3    23    24   ar
     4    24    25   ar
     5    25     1    1
     6     1     2   ar
     7     2     3   ar
     8     3     6    1
     9     6     7    1
    10     7     8    1
    11     8     9    1
    12     9    10   ar
    13    10    11   ar
    14    11    12   ar
    15    12    13   ar
    16    13    14   ar
    17    14    15    1
    18    15    18    1
    19    18    19    1
    20    19    20    1
    21    19    21    1
    22    19    22    1
    23    15    16   am
    24    16    17    2
    25     3     4   ar
    26     4     5   ar
    27    25    26   ar
    28    26    27   ar
    29    27    28   ar
    30    28    29    1
    31    29    30   ar
    32    30    31   ar
    33    31    32   ar
    34    32    33    1
    35    32    34   ar
    36    28    23   ar
    37    34    29   ar
    38     5     1   ar
    39    16     6    1
    40    14     9   ar
