@<TRIPOS>MOLECULE
*****
 27 28 0 0 0
SMALL
GASTEIGER

@<TRIPOS>ATOM
      1 C         139.6188  140.6963  166.5343 C.ar    1  UNL1        0.1413
      2 C         140.0317  142.0976  166.1937 C.ar    1  UNL1        0.0370
      3 C         139.4094  142.7993  165.0231 C.ar    1  UNL1        0.0031
      4 C         138.3742  142.0998  164.1930 C.ar    1  UNL1        0.0003
      5 C         137.9613  140.6986  164.5336 C.ar    1  UNL1        0.0059
      6 C         138.5836  139.9968  165.7043 C.ar    1  UNL1        0.0686
      7 C         138.1706  138.5955  166.0448 C.2     1  UNL1        0.1763
      8 O         137.1838  138.3516  167.1478 O.2     1  UNL1       -0.2912
      9 C         138.7445  137.4383  165.2823 C.3     1  UNL1        0.0739
     10 C         140.1599  137.4932  164.7888 C.3     1  UNL1        0.0345
     11 C         140.4394  137.7766  163.3426 C.ar    1  UNL1       -0.0217
     12 C         141.8552  137.8469  162.8521 C.ar    1  UNL1       -0.0043
     13 C         142.1347  138.1303  161.4059 C.ar    1  UNL1       -0.0003
     14 C         140.9984  138.3433  160.4501 C.ar    1  UNL1       -0.0000
     15 C         139.5826  138.2730  160.9406 C.ar    1  UNL1       -0.0003
     16 C         139.3031  137.9897  162.3868 C.ar    1  UNL1       -0.0043
     17 O         140.2410  139.9946  167.7049 O.3     1  UNL1       -0.4727
     18 C         139.6756  140.1857  169.0811 C.3     1  UNL1        0.2358
     19 C         140.4819  139.7951  170.2841 C.3     1  UNL1        0.1697
     20 O         139.7903  139.3452  171.5367 O.3     1  UNL1       -0.3793
     21 H         140.4523  139.1316  172.2127 H       1  UNL1        0.2106
     22 C         141.9800  139.8545  170.2345 C.3     1  UNL1        0.1021
     23 N         142.7133  140.9271  170.9840 N.3     1  UNL1       -0.2953
     24 H         142.8406  140.5860  171.9368 H       1  UNL1        0.1233
     25 C         142.1253  142.3028  171.0915 C.3     1  UNL1        0.0686
     26 C         140.4746  143.7491  169.7010 C.3     1  UNL1        0.0015
     27 C         141.8104  143.0830  169.8497 C.3     1  UNL1        0.0171
@<TRIPOS>BOND
     1    26    27    1
     2    27    25    1
     3    25    23    1
     4    23    22    1
     5    22    19    1
     6    19    20    1
     7    19    18    1
     8    18    17    1
     9    17     1    1
    10     1     2   ar
    11     2     3   ar
    12     3     4   ar
    13     4     5   ar
    14     5     6   ar
    15     6     7    1
    16     7     8    2
    17     7     9    1
    18     9    10    1
    19    10    11    1
    20    11    12   ar
    21    12    13   ar
    22    13    14   ar
    23    14    15   ar
    24    15    16   ar
    25     6     1   ar
    26    16    11   ar
    27    23    24    1
    28    20    21    1
@<TRIPOS>MOLECULE
*****
 27 28 0 0 0
SMALL
GASTEIGER

@<TRIPOS>ATOM
      1 C         143.3681  141.3620  165.5320 C.ar    1  UNL1        0.1413
      2 C         143.7847  140.3704  164.4864 C.ar    1  UNL1        0.0370
      3 C         143.7434  138.9015  164.7871 C.ar    1  UNL1        0.0031
      4 C         143.2853  138.4240  166.1333 C.ar    1  UNL1        0.0003
      5 C         142.8686  139.4156  167.1788 C.ar    1  UNL1        0.0059
      6 C         142.9100  140.8846  166.8781 C.ar    1  UNL1        0.0686
      7 C         142.4933  141.8762  167.9237 C.2     1  UNL1        0.1763
      8 O         143.5324  142.6441  168.6856 O.2     1  UNL1       -0.2912
      9 C         141.0374  142.0998  168.2074 C.3     1  UNL1        0.0739
     10 C         140.0522  142.1493  167.0775 C.3     1  UNL1        0.0345
     11 C         139.5991  140.8789  166.4212 C.ar    1  UNL1       -0.0217
     12 C         138.8917  139.8296  167.2265 C.ar    1  UNL1       -0.0043
     13 C         138.4387  138.5592  166.5702 C.ar    1  UNL1       -0.0003
     14 C         138.6929  138.3381  165.1086 C.ar    1  UNL1       -0.0000
     15 C         139.4003  139.3874  164.3032 C.ar    1  UNL1       -0.0003
     16 C         139.8534  140.6578  164.9595 C.ar    1  UNL1       -0.0043
     17 O         143.4095  142.8310  165.2313 O.3     1  UNL1       -0.4727
     18 C         143.8989  143.3099  163.8967 C.3     1  UNL1        0.2358
     19 C         143.2044  144.4465  163.2070 C.3     1  UNL1        0.1697
     20 O         144.0006  145.6042  162.6820 O.3     1  UNL1       -0.3793
     21 H         143.4030  146.2464  162.2680 H       1  UNL1        0.2106
     22 C         141.7136  144.4253  163.0421 C.3     1  UNL1        0.1021
     23 N         140.8352  144.0756  164.2067 N.3     1  UNL1       -0.2953
     24 H         140.5743  143.0959  164.0950 H       1  UNL1        0.1233
     25 C         139.5651  144.8376  164.4435 C.3     1  UNL1        0.0686
     26 C         137.8047  143.2930  163.3185 C.3     1  UNL1        0.0015
     27 C         138.2531  144.1120  164.4925 C.3     1  UNL1        0.0171
@<TRIPOS>BOND
     1    26    27    1
     2    27    25    1
     3    25    23    1
     4    23    22    1
     5    22    19    1
     6    19    20    1
     7    19    18    1
     8    18    17    1
     9    17     1    1
    10     1     2   ar
    11     2     3   ar
    12     3     4   ar
    13     4     5   ar
    14     5     6   ar
    15     6     7    1
    16     7     8    2
    17     7     9    1
    18     9    10    1
    19    10    11    1
    20    11    12   ar
    21    12    13   ar
    22    13    14   ar
    23    14    15   ar
    24    15    16   ar
    25     6     1   ar
    26    16    11   ar
    27    23    24    1
    28    20    21    1
@<TRIPOS>MOLECULE
*****
 27 28 0 0 0
SMALL
GASTEIGER

@<TRIPOS>ATOM
      1 C         142.9544  141.4569  165.6218 C.ar    1  UNL1        0.1413
      2 C         142.4352  142.1351  166.8548 C.ar    1  UNL1        0.0370
      3 C         142.1534  141.3322  168.0901 C.ar    1  UNL1        0.0031
      4 C         142.3907  139.8511  168.0923 C.ar    1  UNL1        0.0003
      5 C         142.9099  139.1729  166.8593 C.ar    1  UNL1        0.0059
      6 C         143.1917  139.9758  165.6240 C.ar    1  UNL1        0.0686
      7 C         143.7110  139.2976  164.3909 C.2     1  UNL1        0.1763
      8 O         145.1451  139.4709  163.9871 O.2     1  UNL1       -0.2912
      9 C         142.7959  138.4461  163.5616 C.3     1  UNL1        0.0739
     10 C         141.4600  138.9771  163.1337 C.3     1  UNL1        0.0345
     11 C         140.3260  139.0326  164.1140 C.ar    1  UNL1       -0.0217
     12 C         139.7901  137.7663  164.7134 C.ar    1  UNL1       -0.0043
     13 C         138.6561  137.8217  165.6936 C.ar    1  UNL1       -0.0003
     14 C         138.0579  139.1435  166.0745 C.ar    1  UNL1       -0.0000
     15 C         138.5938  140.4099  165.4752 C.ar    1  UNL1       -0.0003
     16 C         139.7278  140.3544  164.4949 C.ar    1  UNL1       -0.0043
     17 O         143.2363  142.2598  164.3865 O.3     1  UNL1       -0.4727
     18 C         143.7821  143.6519  164.5052 C.3     1  UNL1        0.2358
     19 C         143.1841  144.7636  163.6949 C.3     1  UNL1        0.1697
     20 O         144.0364  145.5271  162.7250 O.3     1  UNL1       -0.3793
     21 H         143.4991  146.2055  162.2869 H       1  UNL1        0.2106
     22 C         141.7338  145.1118  163.8545 C.3     1  UNL1        0.1021
     23 N         140.7119  144.0226  163.9933 N.3     1  UNL1       -0.2953
     24 H         140.1915  143.9936  163.1165 H       1  UNL1        0.1233
     25 C         139.6978  144.0818  165.0969 C.3     1  UNL1        0.0686
     26 C         137.7701  144.0546  163.3552 C.3     1  UNL1        0.0015
     27 C         138.2406  144.2215  164.7698 C.3     1  UNL1        0.0171
@<TRIPOS>BOND
     1    26    27    1
     2    27    25    1
     3    25    23    1
     4    23    22    1
     5    22    19    1
     6    19    20    1
     7    19    18    1
     8    18    17    1
     9    17     1    1
    10     1     2   ar
    11     2     3   ar
    12     3     4   ar
    13     4     5   ar
    14     5     6   ar
    15     6     7    1
    16     7     8    2
    17     7     9    1
    18     9    10    1
    19    10    11    1
    20    11    12   ar
    21    12    13   ar
    22    13    14   ar
    23    14    15   ar
    24    15    16   ar
    25     6     1   ar
    26    16    11   ar
    27    23    24    1
    28    20    21    1
@<TRIPOS>MOLECULE
*****
 27 28 0 0 0
SMALL
GASTEIGER

@<TRIPOS>ATOM
      1 C         141.9407  142.9821  165.2143 C.ar    1  UNL1        0.1413
      2 C         143.0902  142.4494  166.0173 C.ar    1  UNL1        0.0370
      3 C         142.8860  142.0581  167.4509 C.ar    1  UNL1        0.0031
      4 C         141.5324  142.1996  168.0815 C.ar    1  UNL1        0.0003
      5 C         140.3830  142.7323  167.2784 C.ar    1  UNL1        0.0059
      6 C         140.5871  143.1235  165.8448 C.ar    1  UNL1        0.0686
      7 C         139.4376  143.6563  165.0418 C.2     1  UNL1        0.1763
      8 O         139.3413  145.1250  164.7530 O.2     1  UNL1       -0.2912
      9 C         138.3843  142.7202  164.5276 C.3     1  UNL1        0.0739
     10 C         138.7745  141.5421  163.6852 C.3     1  UNL1        0.0345
     11 C         138.7387  140.1597  164.2664 C.ar    1  UNL1       -0.0217
     12 C         138.3518  139.9594  165.7017 C.ar    1  UNL1       -0.0043
     13 C         138.3161  138.5770  166.2829 C.ar    1  UNL1       -0.0003
     14 C         138.6672  137.3950  165.4288 C.ar    1  UNL1       -0.0000
     15 C         139.0541  137.5953  163.9935 C.ar    1  UNL1       -0.0003
     16 C         139.0899  138.9776  163.4122 C.ar    1  UNL1       -0.0043
     17 O         142.1449  143.3734  163.7807 O.3     1  UNL1       -0.4727
     18 C         142.8765  142.4533  162.8490 C.3     1  UNL1        0.2358
     19 C         144.3501  142.6260  162.6282 C.3     1  UNL1        0.1697
     20 O         144.8706  143.8773  161.9854 O.3     1  UNL1       -0.3793
     21 H         145.8370  143.8281  161.9177 H       1  UNL1        0.2106
     22 C         145.3032  141.5472  163.0501 C.3     1  UNL1        0.1021
     23 N         144.8960  140.1068  162.9534 N.3     1  UNL1       -0.2953
     24 H         144.1645  140.0546  162.2445 H       1  UNL1        0.1233
     25 C         144.3767  139.3912  164.1650 C.3     1  UNL1        0.0686
     26 C         142.2270  138.9121  165.5431 C.3     1  UNL1        0.0015
     27 C         142.9406  138.9623  164.2247 C.3     1  UNL1        0.0171
@<TRIPOS>BOND
     1    26    27    1
     2    27    25    1
     3    25    23    1
     4    23    22    1
     5    22    19    1
     6    19    20    1
     7    19    18    1
     8    18    17    1
     9    17     1    1
    10     1     2   ar
    11     2     3   ar
    12     3     4   ar
    13     4     5   ar
    14     5     6   ar
    15     6     7    1
    16     7     8    2
    17     7     9    1
    18     9    10    1
    19    10    11    1
    20    11    12   ar
    21    12    13   ar
    22    13    14   ar
    23    14    15   ar
    24    15    16   ar
    25     6     1   ar
    26    16    11   ar
    27    23    24    1
    28    20    21    1
@<TRIPOS>MOLECULE
*****
 27 28 0 0 0
SMALL
GASTEIGER

@<TRIPOS>ATOM
      1 C         141.4900  140.5367  165.1833 C.ar    1  UNL1        0.1413
      2 C         140.9011  141.0885  166.4476 C.ar    1  UNL1        0.0370
      3 C         141.3602  140.5692  167.7779 C.ar    1  UNL1        0.0031
      4 C         142.4083  139.4982  167.8438 C.ar    1  UNL1        0.0003
      5 C         142.9972  138.9464  166.5794 C.ar    1  UNL1        0.0059
      6 C         142.5381  139.4657  165.2492 C.ar    1  UNL1        0.0686
      7 C         143.1271  138.9138  163.9848 C.2     1  UNL1        0.1763
      8 O         142.3389  137.9497  163.1486 O.2     1  UNL1       -0.2912
      9 C         144.5043  139.3261  163.5566 C.3     1  UNL1        0.0739
     10 C         145.1798  140.4886  164.2215 C.3     1  UNL1        0.0345
     11 C         144.7626  141.8901  163.8870 C.ar    1  UNL1       -0.0217
     12 C         144.3772  142.8395  164.9823 C.ar    1  UNL1       -0.0043
     13 C         143.9599  144.2410  164.6478 C.ar    1  UNL1       -0.0003
     14 C         143.9282  144.6929  163.2179 C.ar    1  UNL1       -0.0000
     15 C         144.3136  143.7435  162.1224 C.ar    1  UNL1       -0.0003
     16 C         144.7309  142.3420  162.4570 C.ar    1  UNL1       -0.0043
     17 O         141.0309  141.0560  163.8530 O.3     1  UNL1       -0.4727
     18 C         139.7129  141.7627  163.7381 C.3     1  UNL1        0.2358
     19 C         138.5077  141.0250  163.2346 C.3     1  UNL1        0.1697
     20 O         137.1379  141.4187  163.7022 O.3     1  UNL1       -0.3793
     21 H         136.4764  140.8456  163.2839 H       1  UNL1        0.2106
     22 C         138.6724  139.8936  162.2635 C.3     1  UNL1        0.1021
     23 N         139.4681  138.6825  162.6510 N.3     1  UNL1       -0.2953
     24 H         139.7072  138.1981  161.7858 H       1  UNL1        0.1233
     25 C         138.8740  137.6577  163.5712 C.3     1  UNL1        0.0686
     26 C         138.3448  138.5088  165.9682 C.3     1  UNL1        0.0015
     27 C         139.1909  137.6922  165.0369 C.3     1  UNL1        0.0171
@<TRIPOS>BOND
     1    26    27    1
     2    27    25    1
     3    25    23    1
     4    23    22    1
     5    22    19    1
     6    19    20    1
     7    19    18    1
     8    18    17    1
     9    17     1    1
    10     1     2   ar
    11     2     3   ar
    12     3     4   ar
    13     4     5   ar
    14     5     6   ar
    15     6     7    1
    16     7     8    2
    17     7     9    1
    18     9    10    1
    19    10    11    1
    20    11    12   ar
    21    12    13   ar
    22    13    14   ar
    23    14    15   ar
    24    15    16   ar
    25     6     1   ar
    26    16    11   ar
    27    23    24    1
    28    20    21    1
@<TRIPOS>MOLECULE
*****
 27 28 0 0 0
SMALL
GASTEIGER

@<TRIPOS>ATOM
      1 C         140.9349  143.3351  165.6234 C.ar    1  UNL1        0.1413
      2 C         141.7378  143.7406  164.4230 C.ar    1  UNL1        0.0370
      3 C         143.1662  143.3017  164.2930 C.ar    1  UNL1        0.0031
      4 C         143.7918  142.4573  165.3633 C.ar    1  UNL1        0.0003
      5 C         142.9889  142.0518  166.5636 C.ar    1  UNL1        0.0059
      6 C         141.5605  142.4907  166.6937 C.ar    1  UNL1        0.0686
      7 C         140.7576  142.0851  167.8942 C.2     1  UNL1        0.1763
      8 O         140.4757  143.0815  168.9794 O.2     1  UNL1       -0.2912
      9 C         140.2367  140.6832  168.0093 C.3     1  UNL1        0.0739
     10 C         139.3410  140.1260  166.9430 C.3     1  UNL1        0.0345
     11 C         139.8782  139.1325  165.9559 C.ar    1  UNL1       -0.0217
     12 C         138.9359  138.2554  165.1861 C.ar    1  UNL1       -0.0043
     13 C         139.4731  137.2619  164.1990 C.ar    1  UNL1       -0.0003
     14 C         140.9527  137.1454  163.9817 C.ar    1  UNL1       -0.0000
     15 C         141.8951  138.0226  164.7515 C.ar    1  UNL1       -0.0003
     16 C         141.3579  139.0161  165.7386 C.ar    1  UNL1       -0.0043
     17 O         139.5065  143.7740  165.7535 O.3     1  UNL1       -0.4727
     18 C         138.8356  144.4901  164.6190 C.3     1  UNL1        0.2358
     19 C         137.8962  143.7485  163.7148 C.3     1  UNL1        0.1697
     20 O         137.4059  144.3923  162.4519 O.3     1  UNL1       -0.3793
     21 H         136.8115  143.7824  161.9877 H       1  UNL1        0.2106
     22 C         137.4472  142.3629  164.0736 C.3     1  UNL1        0.1021
     23 N         136.9330  141.4415  163.0074 N.3     1  UNL1       -0.2953
     24 H         136.6797  140.5684  163.4699 H       1  UNL1        0.1233
     25 C         137.8080  141.0777  161.8447 C.3     1  UNL1        0.0686
     26 C         140.2865  140.8124  162.5774 C.3     1  UNL1        0.0015
     27 C         139.0146  140.2120  162.0560 C.3     1  UNL1        0.0171
@<TRIPOS>BOND
     1    26    27    1
     2    27    25    1
     3    25    23    1
     4    23    22    1
     5    22    19    1
     6    19    20    1
     7    19    18    1
     8    18    17    1
     9    17     1    1
    10     1     2   ar
    11     2     3   ar
    12     3     4   ar
    13     4     5   ar
    14     5     6   ar
    15     6     7    1
    16     7     8    2
    17     7     9    1
    18     9    10    1
    19    10    11    1
    20    11    12   ar
    21    12    13   ar
    22    13    14   ar
    23    14    15   ar
    24    15    16   ar
    25     6     1   ar
    26    16    11   ar
    27    23    24    1
    28    20    21    1
@<TRIPOS>MOLECULE
*****
 27 28 0 0 0
SMALL
GASTEIGER

@<TRIPOS>ATOM
      1 C         143.2057  141.4400  165.9289 C.ar    1  UNL1        0.1413
      2 C         143.1252  139.9423  165.9193 C.ar    1  UNL1        0.0370
      3 C         144.0164  139.1491  165.0100 C.ar    1  UNL1        0.0031
      4 C         144.9881  139.8537  164.1104 C.ar    1  UNL1        0.0003
      5 C         145.0686  141.3515  164.1201 C.ar    1  UNL1        0.0059
      6 C         144.1774  142.1446  165.0293 C.ar    1  UNL1        0.0686
      7 C         144.2580  143.6425  165.0389 C.2     1  UNL1        0.1763
      8 O         145.1824  144.3377  165.9939 O.2     1  UNL1       -0.2912
      9 C         143.4140  144.4450  164.0935 C.3     1  UNL1        0.0739
     10 C         142.4263  143.7554  163.1999 C.3     1  UNL1        0.0345
     11 C         140.9575  143.8555  163.4872 C.ar    1  UNL1       -0.0217
     12 C         139.9600  143.4158  162.4569 C.ar    1  UNL1       -0.0043
     13 C         138.4912  143.5159  162.7443 C.ar    1  UNL1       -0.0003
     14 C         138.0198  144.0558  164.0619 C.ar    1  UNL1       -0.0000
     15 C         139.0173  144.4956  165.0923 C.ar    1  UNL1       -0.0003
     16 C         140.4861  144.3954  164.8050 C.ar    1  UNL1       -0.0043
     17 O         142.3146  142.2332  166.8381 O.3     1  UNL1       -0.4727
     18 C         142.6182  142.3112  168.3050 C.3     1  UNL1        0.2358
     19 C         141.4986  142.4094  169.2984 C.3     1  UNL1        0.1697
     20 O         141.5633  143.4212  170.4038 O.3     1  UNL1       -0.3793
     21 H         140.7663  143.3523  170.9524 H       1  UNL1        0.2106
     22 C         140.3143  141.4956  169.1865 C.3     1  UNL1        0.1021
     23 N         140.4360  140.1975  168.4448 N.3     1  UNL1       -0.2953
     24 H         141.3919  140.1484  168.0921 H       1  UNL1        0.1233
     25 C         139.5309  139.9092  167.2840 C.3     1  UNL1        0.0686
     26 C         139.6144  140.4995  164.7552 C.3     1  UNL1        0.0015
     27 C         139.3856  140.9130  166.1788 C.3     1  UNL1        0.0171
@<TRIPOS>BOND
     1    26    27    1
     2    27    25    1
     3    25    23    1
     4    23    22    1
     5    22    19    1
     6    19    20    1
     7    19    18    1
     8    18    17    1
     9    17     1    1
    10     1     2   ar
    11     2     3   ar
    12     3     4   ar
    13     4     5   ar
    14     5     6   ar
    15     6     7    1
    16     7     8    2
    17     7     9    1
    18     9    10    1
    19    10    11    1
    20    11    12   ar
    21    12    13   ar
    22    13    14   ar
    23    14    15   ar
    24    15    16   ar
    25     6     1   ar
    26    16    11   ar
    27    23    24    1
    28    20    21    1
@<TRIPOS>MOLECULE
*****
 27 28 0 0 0
SMALL
GASTEIGER

@<TRIPOS>ATOM
      1 C         142.9409  141.2681  165.9779 C.ar    1  UNL1        0.1413
      2 C         142.5301  141.8747  167.2868 C.ar    1  UNL1        0.0370
      3 C         142.3586  141.0039  168.4960 C.ar    1  UNL1        0.0031
      4 C         142.5978  139.5265  168.3964 C.ar    1  UNL1        0.0003
      5 C         143.0085  138.9199  167.0875 C.ar    1  UNL1        0.0059
      6 C         143.1801  139.7907  165.8783 C.ar    1  UNL1        0.0686
      7 C         143.5908  139.1839  164.5693 C.2     1  UNL1        0.1763
      8 O         145.0186  139.2704  164.1178 O.2     1  UNL1       -0.2912
      9 C         142.5738  138.4908  163.7120 C.3     1  UNL1        0.0739
     10 C         141.2267  139.1135  163.4943 C.3     1  UNL1        0.0345
     11 C         140.1338  138.9079  164.5010 C.ar    1  UNL1       -0.0217
     12 C         139.5819  140.0790  165.2586 C.ar    1  UNL1       -0.0043
     13 C         138.4891  139.8733  166.2653 C.ar    1  UNL1       -0.0003
     14 C         137.9482  138.4967  166.5144 C.ar    1  UNL1       -0.0000
     15 C         138.5001  137.3255  165.7568 C.ar    1  UNL1       -0.0003
     16 C         139.5929  137.5311  164.7501 C.ar    1  UNL1       -0.0043
     17 O         143.1124  142.1389  164.7686 O.3     1  UNL1       -0.4727
     18 C         144.4315  142.8016  164.5027 C.3     1  UNL1        0.2358
     19 C         145.1231  142.5949  163.1878 C.3     1  UNL1        0.1697
     20 O         146.3826  141.7830  163.1223 O.3     1  UNL1       -0.3793
     21 H         146.6976  141.7483  162.2056 H       1  UNL1        0.2106
     22 C         144.5552  143.2003  161.9383 C.3     1  UNL1        0.1021
     23 N         143.6356  144.3819  162.0284 N.3     1  UNL1       -0.2953
     24 H         143.6476  144.6909  163.0004 H       1  UNL1        0.1233
     25 C         142.1946  144.2426  161.6359 C.3     1  UNL1        0.0686
     26 C         141.2748  145.0208  163.9378 C.3     1  UNL1        0.0015
     27 C         141.1277  144.9140  162.4488 C.3     1  UNL1        0.0171
@<TRIPOS>BOND
     1    26    27    1
     2    27    25    1
     3    25    23    1
     4    23    22    1
     5    22    19    1
     6    19    20    1
     7    19    18    1
     8    18    17    1
     9    17     1    1
    10     1     2   ar
    11     2     3   ar
    12     3     4   ar
    13     4     5   ar
    14     5     6   ar
    15     6     7    1
    16     7     8    2
    17     7     9    1
    18     9    10    1
    19    10    11    1
    20    11    12   ar
    21    12    13   ar
    22    13    14   ar
    23    14    15   ar
    24    15    16   ar
    25     6     1   ar
    26    16    11   ar
    27    23    24    1
    28    20    21    1
@<TRIPOS>MOLECULE
*****
 27 28 0 0 0
SMALL
GASTEIGER

@<TRIPOS>ATOM
      1 C         141.3920  142.6354  166.0233 C.ar    1  UNL1        0.1413
      2 C         140.3549  142.8773  167.0797 C.ar    1  UNL1        0.0370
      3 C         140.7172  142.7492  168.5296 C.ar    1  UNL1        0.0031
      4 C         142.1165  142.3792  168.9232 C.ar    1  UNL1        0.0003
      5 C         143.1535  142.1372  167.8668 C.ar    1  UNL1        0.0059
      6 C         142.7913  142.2653  166.4169 C.ar    1  UNL1        0.0686
      7 C         143.8284  142.0233  165.3605 C.2     1  UNL1        0.1763
      8 O         144.7197  143.1440  164.9138 O.2     1  UNL1       -0.2912
      9 C         143.9741  140.6606  164.7508 C.3     1  UNL1        0.0739
     10 C         143.4236  139.4589  165.4598 C.3     1  UNL1        0.0345
     11 C         142.1267  138.8526  165.0119 C.ar    1  UNL1       -0.0217
     12 C         140.8737  139.0953  165.7998 C.ar    1  UNL1       -0.0043
     13 C         139.5768  138.4890  165.3519 C.ar    1  UNL1       -0.0003
     14 C         139.5331  137.6400  164.1161 C.ar    1  UNL1       -0.0000
     15 C         140.7862  137.3973  163.3282 C.ar    1  UNL1       -0.0003
     16 C         142.0830  138.0036  163.7761 C.ar    1  UNL1       -0.0043
     17 O         141.0297  142.7635  164.5733 O.3     1  UNL1       -0.4727
     18 C         140.8909  144.1217  163.9521 C.3     1  UNL1        0.2358
     19 C         139.5507  144.7941  163.9106 C.3     1  UNL1        0.1697
     20 O         138.9057  145.2601  165.1822 O.3     1  UNL1       -0.3793
     21 H         138.0502  145.6699  164.9794 H       1  UNL1        0.2106
     22 C         138.8555  145.0006  162.5975 C.3     1  UNL1        0.1021
     23 N         137.7324  144.0925  162.1926 N.3     1  UNL1       -0.2953
     24 H         136.9763  144.2436  162.8602 H       1  UNL1        0.1233
     25 C         137.9553  142.6110  162.1187 C.3     1  UNL1        0.0686
     26 C         137.8796  141.5771  164.5011 C.3     1  UNL1        0.0015
     27 C         137.3053  141.7039  163.1211 C.3     1  UNL1        0.0171
@<TRIPOS>BOND
     1    26    27    1
     2    27    25    1
     3    25    23    1
     4    23    22    1
     5    22    19    1
     6    19    20    1
     7    19    18    1
     8    18    17    1
     9    17     1    1
    10     1     2   ar
    11     2     3   ar
    12     3     4   ar
    13     4     5   ar
    14     5     6   ar
    15     6     7    1
    16     7     8    2
    17     7     9    1
    18     9    10    1
    19    10    11    1
    20    11    12   ar
    21    12    13   ar
    22    13    14   ar
    23    14    15   ar
    24    15    16   ar
    25     6     1   ar
    26    16    11   ar
    27    23    24    1
    28    20    21    1
