@<TRIPOS>MOLECULE
*****
 43 45 0 0 0
SMALL
GASTEIGER

@<TRIPOS>ATOM
      1 C         139.8240  139.7944  161.3857 C.ar    1  UNL1        0.0539
      2 S         140.1022  138.5959  160.5277 S.2     1  UNL1       -0.0619
      3 C         140.1871  139.0557  159.1024 C.ar    1  UNL1        0.1641
      4 N         139.9614  140.5384  159.0795 N.ar    1  UNL1       -0.2291
      5 C         139.7370  140.9949  160.4906 C.ar    1  UNL1        0.1414
      6 C         139.4720  142.4046  160.9296 C.2     1  UNL1        0.2673
      7 O         138.1397  143.0374  160.6562 O.2     1  UNL1       -0.2682
      8 N         140.5392  143.1815  161.6420 N.am    1  UNL1       -0.2747
      9 C         140.2742  144.5911  162.0810 C.3     1  UNL1        0.0966
     10 C         141.3415  145.3679  162.7933 C.3     1  UNL1        0.0568
     11 C         142.6737  144.7352  163.0667 C.3     1  UNL1        0.1644
     12 F         143.7409  145.5120  163.7791 F       1  UNL1       -0.2372
     13 C         142.9387  143.3255  162.6278 C.3     1  UNL1        0.0568
     14 C         141.8715  142.5487  161.9154 C.3     1  UNL1        0.0966
     15 C         139.3360  139.7892  165.8591 C.ar    1  UNL1        0.1333
     16 C         138.1716  140.1323  164.9781 C.ar    1  UNL1        0.0208
     17 C         138.3342  140.1341  163.4869 C.ar    1  UNL1        0.0028
     18 C         139.6613  139.7927  162.8768 C.ar    1  UNL1        0.0191
     19 C         140.8257  139.4495  163.7579 C.ar    1  UNL1        0.0700
     20 CL        142.1529  139.1081  163.1478 Cl      1  UNL1       -0.0813
     21 C         140.6631  139.4478  165.2490 C.ar    1  UNL1        0.0867
     22 CL        141.8276  139.1046  166.1301 Cl      1  UNL1       -0.0800
     23 S         139.1733  139.7875  167.3503 S.O2    1  UNL1        0.0613
     24 O         139.8486  141.1248  167.4255 O.2     1  UNL1       -0.1530
     25 O         138.4981  138.4502  167.2751 O.2     1  UNL1       -0.1530
     26 N         139.0107  139.7857  168.8414 N.3     1  UNL1       -0.1723
     27 H         138.1803  140.3410  169.0477 H       1  UNL1        0.1491
     28 C         141.3773  139.5236  169.8810 C.3     1  UNL1        0.0278
     29 C         140.1105  140.3099  169.7165 C.3     1  UNL1        0.1701
     30 C         139.9435  141.6203  170.4269 C.3     1  UNL1        0.4118
     31 F         139.7766  142.9308  171.1374 F       1  UNL1       -0.1685
     32 F         141.4338  141.7845  170.4743 F       1  UNL1       -0.1685
     33 F         138.4533  141.4562  170.3796 F       1  UNL1       -0.1685
     34 C         140.4514  138.1855  157.9095 C.2     1  UNL1        0.2699
     35 O         139.3315  137.8317  156.9764 O.2     1  UNL1       -0.2679
     36 N         141.8356  137.6692  157.6498 N.am    1  UNL1       -0.2969
     37 H         142.5706  137.9014  158.2622 H       1  UNL1        0.1499
     38 C         142.0999  136.7991  156.4569 C.3     1  UNL1        0.1166
     39 C         143.4970  136.6513  155.9312 C.3     1  UNL1        0.1064
     40 C         143.4780  138.0813  155.4787 C.3     1  UNL1        0.0311
     41 C         143.5160  135.2212  156.3837 C.3     1  UNL1        0.0311
     42 O         144.8941  136.5035  155.4055 O.3     1  UNL1       -0.3851
     43 H         145.1836  137.3435  155.0163 H       1  UNL1        0.2103
@<TRIPOS>BOND
     1    29    28    1
     2    29    26    1
     3    26    23    1
     4    23    24    2
     5    23    25    2
     6    23    15    1
     7    15    16   ar
     8    16    17   ar
     9    17    18   ar
    10    18     1    1
    11     1     2   ar
    12     2     3   ar
    13     3    34    1
    14    34    35    2
    15    34    36   am
    16    36    38    1
    17    38    39    1
    18    39    40    1
    19    39    41    1
    20    39    42    1
    21     3     4   ar
    22     4     5   ar
    23     5     6    1
    24     6     7    2
    25     6     8   am
    26     8     9    1
    27     9    10    1
    28    10    11    1
    29    11    12    1
    30    11    13    1
    31    13    14    1
    32    18    19   ar
    33    19    20    1
    34    19    21   ar
    35    21    22    1
    36    29    30    1
    37    30    31    1
    38    30    32    1
    39    30    33    1
    40    21    15   ar
    41     5     1   ar
    42    14     8    1
    43    26    27    1
    44    36    37    1
    45    42    43    1
@<TRIPOS>MOLECULE
*****
 43 45 0 0 0
SMALL
GASTEIGER

@<TRIPOS>ATOM
      1 C         141.8631  138.5415  161.1582 C.ar    1  UNL1        0.0539
      2 S         142.8837  138.0709  160.1648 S.2     1  UNL1       -0.0619
      3 C         142.2523  138.0957  158.8044 C.ar    1  UNL1        0.1641
      4 N         140.8414  138.5817  158.9570 N.ar    1  UNL1       -0.2291
      5 C         140.6009  138.8573  160.4118 C.ar    1  UNL1        0.1414
      6 C         139.3226  139.3602  161.0142 C.2     1  UNL1        0.2673
      7 O         138.1892  138.4112  161.2691 O.2     1  UNL1       -0.2682
      8 N         139.1776  140.8121  161.3618 N.am    1  UNL1       -0.2747
      9 C         137.8993  141.3151  161.9643 C.3     1  UNL1        0.0966
     10 C         137.7543  142.7670  162.3119 C.3     1  UNL1        0.0568
     11 C         138.8876  143.7160  162.0570 C.3     1  UNL1        0.1644
     12 F         138.7426  145.1680  162.4046 F       1  UNL1       -0.2372
     13 C         140.1659  143.2131  161.4546 C.3     1  UNL1        0.0568
     14 C         140.3109  141.7612  161.1070 C.3     1  UNL1        0.0966
     15 C         142.4796  138.9370  165.5982 C.ar    1  UNL1        0.1333
     16 C         141.7054  137.7756  165.0490 C.ar    1  UNL1        0.0208
     17 C         141.4999  137.6438  163.5691 C.ar    1  UNL1        0.0028
     18 C         142.0686  138.6734  162.6382 C.ar    1  UNL1        0.0191
     19 C         142.8429  139.8347  163.1874 C.ar    1  UNL1        0.0700
     20 CL        143.4117  140.8644  162.2566 Cl      1  UNL1       -0.0813
     21 C         143.0484  139.9666  164.6674 C.ar    1  UNL1        0.0867
     22 CL        143.8227  141.1280  165.2166 Cl      1  UNL1       -0.0800
     23 S         142.6852  139.0688  167.0782 S.O2    1  UNL1        0.0613
     24 O         143.9730  138.3078  166.9672 O.2     1  UNL1       -0.1530
     25 O         141.3973  139.8299  167.1893 O.2     1  UNL1       -0.1530
     26 N         142.8907  139.2006  168.5582 N.3     1  UNL1       -0.1723
     27 H         142.2974  138.4992  169.0015 H       1  UNL1        0.1491
     28 C         143.2624  141.7640  168.7612 C.3     1  UNL1        0.0278
     29 C         142.6044  140.5046  169.2420 C.3     1  UNL1        0.1701
     30 C         141.6600  140.5494  170.4065 C.3     1  UNL1        0.4118
     31 F         140.7156  140.5941  171.5711 F       1  UNL1       -0.1685
     32 F         141.3960  139.0812  170.2488 F       1  UNL1       -0.1685
     33 F         141.9240  142.0175  170.5642 F       1  UNL1       -0.1685
     34 C         142.9153  137.7034  157.5174 C.2     1  UNL1        0.2699
     35 O         143.8007  138.6800  156.8017 O.2     1  UNL1       -0.2679
     36 N         142.6929  136.3344  156.9461 N.am    1  UNL1       -0.2969
     37 H         142.1118  135.6934  157.4158 H       1  UNL1        0.1499
     38 C         143.3560  135.9421  155.6591 C.3     1  UNL1        0.1166
     39 C         143.0953  134.5905  155.0627 C.3     1  UNL1        0.1064
     40 C         142.3724  135.2354  153.9174 C.3     1  UNL1        0.0311
     41 C         143.8182  133.9457  156.2080 C.3     1  UNL1        0.0311
     42 O         142.8346  133.2390  154.4664 O.3     1  UNL1       -0.3851
     43 H         142.3377  133.3408  153.6395 H       1  UNL1        0.2103
@<TRIPOS>BOND
     1    29    28    1
     2    29    26    1
     3    26    23    1
     4    23    24    2
     5    23    25    2
     6    23    15    1
     7    15    16   ar
     8    16    17   ar
     9    17    18   ar
    10    18     1    1
    11     1     2   ar
    12     2     3   ar
    13     3    34    1
    14    34    35    2
    15    34    36   am
    16    36    38    1
    17    38    39    1
    18    39    40    1
    19    39    41    1
    20    39    42    1
    21     3     4   ar
    22     4     5   ar
    23     5     6    1
    24     6     7    2
    25     6     8   am
    26     8     9    1
    27     9    10    1
    28    10    11    1
    29    11    12    1
    30    11    13    1
    31    13    14    1
    32    18    19   ar
    33    19    20    1
    34    19    21   ar
    35    21    22    1
    36    29    30    1
    37    30    31    1
    38    30    32    1
    39    30    33    1
    40    21    15   ar
    41     5     1   ar
    42    14     8    1
    43    26    27    1
    44    36    37    1
    45    42    43    1
@<TRIPOS>MOLECULE
*****
 43 45 0 0 0
SMALL
GASTEIGER

@<TRIPOS>ATOM
      1 C         141.2006  139.5801  162.0749 C.ar    1  UNL1        0.0539
      2 S         142.1034  138.8225  161.1470 S.2     1  UNL1       -0.0619
      3 C         141.6093  139.0315  159.7462 C.ar    1  UNL1        0.1641
      4 N         140.4011  139.9183  159.8084 N.ar    1  UNL1       -0.2291
      5 C         140.1486  140.2573  161.2476 C.ar    1  UNL1        0.1414
      6 C         139.0387  141.1218  161.7681 C.2     1  UNL1        0.2673
      7 O         137.7450  140.5000  162.2038 O.2     1  UNL1       -0.2682
      8 N         139.2224  142.6080  161.8529 N.am    1  UNL1       -0.2747
      9 C         138.1126  143.4726  162.3733 C.3     1  UNL1        0.0966
     10 C         138.2964  144.9588  162.4581 C.3     1  UNL1        0.0568
     11 C         139.5900  145.5807  162.0224 C.3     1  UNL1        0.1644
     12 F         139.7738  147.0669  162.1072 F       1  UNL1       -0.2372
     13 C         140.6999  144.7162  161.5019 C.3     1  UNL1        0.0568
     14 C         140.5161  143.2300  161.4172 C.3     1  UNL1        0.0966
     15 C         141.5815  139.7851  166.5541 C.ar    1  UNL1        0.1333
     16 C         140.7142  138.7370  165.9223 C.ar    1  UNL1        0.0208
     17 C         140.5873  138.6686  164.4293 C.ar    1  UNL1        0.0028
     18 C         141.3276  139.6484  163.5680 C.ar    1  UNL1        0.0191
     19 C         142.1949  140.6965  164.1998 C.ar    1  UNL1        0.0700
     20 CL        142.9353  141.6764  163.3385 Cl      1  UNL1       -0.0813
     21 C         142.3219  140.7649  165.6928 C.ar    1  UNL1        0.0867
     22 CL        143.1893  141.8131  166.3246 Cl      1  UNL1       -0.0800
     23 S         141.7085  139.8534  168.0472 S.O2    1  UNL1        0.0613
     24 O         142.9572  139.0250  167.9789 O.2     1  UNL1       -0.1530
     25 O         140.4599  140.6818  168.1154 O.2     1  UNL1       -0.1530
     26 N         141.8355  139.9217  169.5402 N.3     1  UNL1       -0.1723
     27 H         140.9699  139.5455  169.9269 H       1  UNL1        0.1491
     28 C         141.0385  141.8066  171.1409 C.3     1  UNL1        0.0278
     29 C         142.0728  141.2411  170.2131 C.3     1  UNL1        0.1701
     30 C         143.3443  141.9951  169.9584 C.3     1  UNL1        0.4118
     31 F         144.6157  142.7490  169.7036 F       1  UNL1       -0.1685
     32 F         144.1394  140.8112  170.4235 F       1  UNL1       -0.1685
     33 F         142.5491  143.1789  169.4933 F       1  UNL1       -0.1685
     34 C         142.2168  138.4550  158.5018 C.2     1  UNL1        0.2699
     35 O         143.6368  138.7774  158.1415 O.2     1  UNL1       -0.2679
     36 N         141.4043  137.5561  157.6177 N.am    1  UNL1       -0.2969
     37 H         140.4723  137.3445  157.8542 H       1  UNL1        0.1499
     38 C         142.0118  136.9795  156.3733 C.3     1  UNL1        0.1166
     39 C         141.6462  135.5927  155.9333 C.3     1  UNL1        0.1064
     40 C         142.7971  135.0397  156.7206 C.3     1  UNL1        0.0311
     41 C         140.4954  136.1459  155.1461 C.3     1  UNL1        0.0311
     42 O         141.2807  134.2061  155.4934 O.3     1  UNL1       -0.3851
     43 H         141.9035  133.5700  155.8786 H       1  UNL1        0.2103
@<TRIPOS>BOND
     1    29    28    1
     2    29    26    1
     3    26    23    1
     4    23    24    2
     5    23    25    2
     6    23    15    1
     7    15    16   ar
     8    16    17   ar
     9    17    18   ar
    10    18     1    1
    11     1     2   ar
    12     2     3   ar
    13     3    34    1
    14    34    35    2
    15    34    36   am
    16    36    38    1
    17    38    39    1
    18    39    40    1
    19    39    41    1
    20    39    42    1
    21     3     4   ar
    22     4     5   ar
    23     5     6    1
    24     6     7    2
    25     6     8   am
    26     8     9    1
    27     9    10    1
    28    10    11    1
    29    11    12    1
    30    11    13    1
    31    13    14    1
    32    18    19   ar
    33    19    20    1
    34    19    21   ar
    35    21    22    1
    36    29    30    1
    37    30    31    1
    38    30    32    1
    39    30    33    1
    40    21    15   ar
    41     5     1   ar
    42    14     8    1
    43    26    27    1
    44    36    37    1
    45    42    43    1
@<TRIPOS>MOLECULE
*****
 43 45 0 0 0
SMALL
GASTEIGER

@<TRIPOS>ATOM
      1 C         142.7463  140.3480  161.6939 C.ar    1  UNL1        0.0539
      2 S         142.9944  139.1947  160.7675 S.2     1  UNL1       -0.0619
      3 C         143.1247  139.7379  159.3754 C.ar    1  UNL1        0.1641
      4 N         142.9571  141.2271  159.4414 N.ar    1  UNL1       -0.2291
      5 C         142.7233  141.6041  160.8743 C.ar    1  UNL1        0.1414
      6 C         142.5048  142.9934  161.3960 C.2     1  UNL1        0.2673
      7 O         143.6549  143.9529  161.4790 O.2     1  UNL1       -0.2682
      8 N         141.1364  143.4233  161.8346 N.am    1  UNL1       -0.2747
      9 C         140.9179  144.8126  162.3563 C.3     1  UNL1        0.0966
     10 C         139.5494  145.2424  162.7949 C.3     1  UNL1        0.0568
     11 C         138.3993  144.2831  162.7119 C.3     1  UNL1        0.1644
     12 F         137.0308  144.7129  163.1505 F       1  UNL1       -0.2372
     13 C         138.6177  142.8937  162.1902 C.3     1  UNL1        0.0568
     14 C         139.9862  142.4639  161.7516 C.3     1  UNL1        0.0966
     15 C         142.1720  140.0860  166.1494 C.ar    1  UNL1        0.1333
     16 C         143.3853  140.7665  165.5883 C.ar    1  UNL1        0.0208
     17 C         143.5767  140.8538  164.1031 C.ar    1  UNL1        0.0028
     18 C         142.5549  140.2607  163.1791 C.ar    1  UNL1        0.0191
     19 C         141.3416  139.5802  163.7401 C.ar    1  UNL1        0.0700
     20 CL        140.3197  138.9870  162.8160 Cl      1  UNL1       -0.0813
     21 C         141.1502  139.4928  165.2253 C.ar    1  UNL1        0.0867
     22 CL        139.9368  138.8123  165.7864 Cl      1  UNL1       -0.0800
     23 S         141.9806  139.9986  167.6346 S.O2    1  UNL1        0.0613
     24 O         143.0414  138.9407  167.7091 O.2     1  UNL1       -0.1530
     25 O         140.9198  141.0565  167.5601 O.2     1  UNL1       -0.1530
     26 N         141.7891  139.9113  169.1197 N.3     1  UNL1       -0.1723
     27 H         140.8240  139.6206  169.2756 H       1  UNL1        0.1491
     28 C         140.9477  141.5935  170.9120 C.3     1  UNL1        0.0278
     29 C         142.0216  141.1191  169.9782 C.3     1  UNL1        0.1701
     30 C         143.3279  141.8526  169.9030 C.3     1  UNL1        0.4118
     31 F         144.6341  142.5861  169.8278 F       1  UNL1       -0.1685
     32 F         142.6294  143.0345  169.2987 F       1  UNL1       -0.1685
     33 F         144.0263  140.6706  170.5073 F       1  UNL1       -0.1685
     34 C         143.3780  138.9332  158.1351 C.2     1  UNL1        0.2699
     35 O         144.1804  139.5196  157.0116 O.2     1  UNL1       -0.2679
     36 N         142.8289  137.5423  158.0184 N.am    1  UNL1       -0.2969
     37 H         142.3023  137.1574  158.7558 H       1  UNL1        0.1499
     38 C         143.0823  136.7376  156.7781 C.3     1  UNL1        0.1166
     39 C         142.0070  135.8472  156.2291 C.3     1  UNL1        0.1064
     40 C         142.8110  134.6402  156.6123 C.3     1  UNL1        0.0311
     41 C         141.2032  137.0544  155.8459 C.3     1  UNL1        0.0311
     42 O         140.9319  134.9570  155.6801 O.3     1  UNL1       -0.3851
     43 H         141.1902  134.0291  155.7954 H       1  UNL1        0.2103
@<TRIPOS>BOND
     1    29    28    1
     2    29    26    1
     3    26    23    1
     4    23    24    2
     5    23    25    2
     6    23    15    1
     7    15    16   ar
     8    16    17   ar
     9    17    18   ar
    10    18     1    1
    11     1     2   ar
    12     2     3   ar
    13     3    34    1
    14    34    35    2
    15    34    36   am
    16    36    38    1
    17    38    39    1
    18    39    40    1
    19    39    41    1
    20    39    42    1
    21     3     4   ar
    22     4     5   ar
    23     5     6    1
    24     6     7    2
    25     6     8   am
    26     8     9    1
    27     9    10    1
    28    10    11    1
    29    11    12    1
    30    11    13    1
    31    13    14    1
    32    18    19   ar
    33    19    20    1
    34    19    21   ar
    35    21    22    1
    36    29    30    1
    37    30    31    1
    38    30    32    1
    39    30    33    1
    40    21    15   ar
    41     5     1   ar
    42    14     8    1
    43    26    27    1
    44    36    37    1
    45    42    43    1
@<TRIPOS>MOLECULE
*****
 43 45 0 0 0
SMALL
GASTEIGER

@<TRIPOS>ATOM
      1 C         142.7138  139.3818  161.0603 C.ar    1  UNL1        0.0539
      2 S         142.5268  138.0861  160.3282 S.2     1  UNL1       -0.0619
      3 C         142.5376  138.3791  158.8571 C.ar    1  UNL1        0.1641
      4 N         142.7313  139.8560  158.6801 N.ar    1  UNL1       -0.2291
      5 C         142.8402  140.4757  160.0417 C.ar    1  UNL1        0.1414
      6 C         143.0404  141.9333  160.3336 C.2     1  UNL1        0.2673
      7 O         144.3817  142.5661  160.1082 O.2     1  UNL1       -0.2682
      8 N         141.8994  142.7583  160.8507 N.am    1  UNL1       -0.2747
      9 C         142.0996  144.2160  161.1425 C.3     1  UNL1        0.0966
     10 C         140.9586  145.0409  161.6597 C.3     1  UNL1        0.0568
     11 C         139.6173  144.4083  161.8851 C.3     1  UNL1        0.1644
     12 F         138.4763  145.2332  162.4023 F       1  UNL1       -0.2372
     13 C         139.4171  142.9506  161.5933 C.3     1  UNL1        0.0568
     14 C         140.5581  142.1256  161.0761 C.3     1  UNL1        0.0966
     15 C         142.8686  139.8971  165.5281 C.ar    1  UNL1        0.1333
     16 C         144.1180  140.0482  164.7119 C.ar    1  UNL1        0.0208
     17 C         144.0664  139.8765  163.2227 C.ar    1  UNL1        0.0028
     18 C         142.7654  139.5536  162.5496 C.ar    1  UNL1        0.0191
     19 C         141.5160  139.4024  163.3657 C.ar    1  UNL1        0.0700
     20 CL        140.2149  139.0795  162.6926 Cl      1  UNL1       -0.0813
     21 C         141.5676  139.5742  164.8549 C.ar    1  UNL1        0.0867
     22 CL        140.3181  139.4230  165.6711 Cl      1  UNL1       -0.0800
     23 S         142.9202  140.0688  167.0173 S.O2    1  UNL1        0.0613
     24 O         143.1221  138.5915  167.1807 O.2     1  UNL1       -0.1530
     25 O         142.7183  141.5461  166.8539 O.2     1  UNL1       -0.1530
     26 N         142.9718  140.2406  168.5065 N.3     1  UNL1       -0.1723
     27 H         143.0073  139.3043  168.9098 H       1  UNL1        0.1491
     28 C         142.1749  142.2480  169.9507 C.3     1  UNL1        0.0278
     29 C         141.8731  140.9759  169.2152 C.3     1  UNL1        0.1701
     30 C         140.4727  140.4392  169.1885 C.3     1  UNL1        0.4118
     31 F         139.0722  139.9025  169.1618 F       1  UNL1       -0.1685
     32 F         140.0246  141.6466  168.4195 F       1  UNL1       -0.1685
     33 F         140.9208  139.2317  169.9575 F       1  UNL1       -0.1685
     34 C         142.3820  137.3721  157.7564 C.2     1  UNL1        0.2699
     35 O         141.3052  137.5466  156.7268 O.2     1  UNL1       -0.2679
     36 N         143.3032  136.1905  157.6852 N.am    1  UNL1       -0.2969
     37 H         144.0100  136.0759  158.3609 H       1  UNL1        0.1499
     38 C         143.1476  135.1834  156.5844 C.3     1  UNL1        0.1166
     39 C         142.9155  133.7391  156.9166 C.3     1  UNL1        0.1064
     40 C         143.8767  133.8483  158.0630 C.3     1  UNL1        0.0311
     41 C         141.9542  133.6300  155.7702 C.3     1  UNL1        0.0311
     42 O         142.6833  132.2949  157.2488 O.3     1  UNL1       -0.3851
     43 H         143.2193  132.0501  158.0193 H       1  UNL1        0.2103
@<TRIPOS>BOND
     1    29    28    1
     2    29    26    1
     3    26    23    1
     4    23    24    2
     5    23    25    2
     6    23    15    1
     7    15    16   ar
     8    16    17   ar
     9    17    18   ar
    10    18     1    1
    11     1     2   ar
    12     2     3   ar
    13     3    34    1
    14    34    35    2
    15    34    36   am
    16    36    38    1
    17    38    39    1
    18    39    40    1
    19    39    41    1
    20    39    42    1
    21     3     4   ar
    22     4     5   ar
    23     5     6    1
    24     6     7    2
    25     6     8   am
    26     8     9    1
    27     9    10    1
    28    10    11    1
    29    11    12    1
    30    11    13    1
    31    13    14    1
    32    18    19   ar
    33    19    20    1
    34    19    21   ar
    35    21    22    1
    36    29    30    1
    37    30    31    1
    38    30    32    1
    39    30    33    1
    40    21    15   ar
    41     5     1   ar
    42    14     8    1
    43    26    27    1
    44    36    37    1
    45    42    43    1
@<TRIPOS>MOLECULE
*****
 43 45 0 0 0
SMALL
GASTEIGER

@<TRIPOS>ATOM
      1 C         138.6600  141.1857  161.0852 C.ar    1  UNL1        0.0539
      2 S         137.9790  140.3620  160.0327 S.2     1  UNL1       -0.0619
      3 C         138.1320  141.0699  158.7191 C.ar    1  UNL1        0.1641
      4 N         138.9076  142.3310  158.9597 N.ar    1  UNL1       -0.2291
      5 C         139.2339  142.4026  160.4221 C.ar    1  UNL1        0.1414
      6 C         139.9997  143.4986  161.1019 C.2     1  UNL1        0.2673
      7 O         139.3647  144.8423  161.3058 O.2     1  UNL1       -0.2682
      8 N         141.4005  143.2512  161.5779 N.am    1  UNL1       -0.2747
      9 C         142.1663  144.3473  162.2578 C.3     1  UNL1        0.0966
     10 C         143.5670  144.0997  162.7337 C.3     1  UNL1        0.0568
     11 C         144.2021  142.7562  162.5299 C.3     1  UNL1        0.1644
     12 F         145.6028  142.5087  163.0059 F       1  UNL1       -0.2372
     13 C         143.4363  141.6600  161.8501 C.3     1  UNL1        0.0568
     14 C         142.0355  141.9076  161.3741 C.3     1  UNL1        0.0966
     15 C         138.9332  140.1821  165.4634 C.ar    1  UNL1        0.1333
     16 C         138.0993  141.3439  165.0108 C.ar    1  UNL1        0.0208
     17 C         138.0082  141.6785  163.5515 C.ar    1  UNL1        0.0028
     18 C         138.7510  140.8512  162.5446 C.ar    1  UNL1        0.0191
     19 C         139.5849  139.6894  162.9971 C.ar    1  UNL1        0.0700
     20 CL        140.3278  138.8620  161.9903 Cl      1  UNL1       -0.0813
     21 C         139.6760  139.3549  164.4565 C.ar    1  UNL1        0.0867
     22 CL        140.5099  138.1930  164.9090 Cl      1  UNL1       -0.0800
     23 S         139.0243  139.8476  166.9228 S.O2    1  UNL1        0.0613
     24 O         140.1987  140.7704  167.0610 O.2     1  UNL1       -0.1530
     25 O         137.8498  138.9248  166.7845 O.2     1  UNL1       -0.1530
     26 N         139.1153  139.5131  168.3822 N.3     1  UNL1       -0.1723
     27 H         138.1870  139.6635  168.7772 H       1  UNL1        0.1491
     28 C         141.4884  139.7434  169.4144 C.3     1  UNL1        0.0278
     29 C         140.0840  140.2476  169.2609 C.3     1  UNL1        0.1701
     30 C         139.6483  141.4861  169.9863 C.3     1  UNL1        0.4118
     31 F         139.2126  142.7247  170.7116 F       1  UNL1       -0.1685
     32 F         140.9920  142.1046  169.7374 F       1  UNL1       -0.1685
     33 F         138.3045  140.8677  170.2351 F       1  UNL1       -0.1685
     34 C         137.6024  140.5992  157.3970 C.2     1  UNL1        0.2699
     35 O         138.3735  139.5926  156.5955 O.2     1  UNL1       -0.2679
     36 N         136.3018  141.1351  156.8763 N.am    1  UNL1       -0.2969
     37 H         135.7957  141.7958  157.4023 H       1  UNL1        0.1499
     38 C         135.7722  140.6644  155.5542 C.3     1  UNL1        0.1166
     39 C         134.3074  140.7758  155.2504 C.3     1  UNL1        0.1064
     40 C         134.6309  141.2947  153.8807 C.3     1  UNL1        0.0311
     41 C         133.9840  140.2568  156.6202 C.3     1  UNL1        0.0311
     42 O         132.8427  140.8871  154.9467 O.3     1  UNL1       -0.3851
     43 H         132.7242  141.2275  154.0462 H       1  UNL1        0.2103
@<TRIPOS>BOND
     1    29    28    1
     2    29    26    1
     3    26    23    1
     4    23    24    2
     5    23    25    2
     6    23    15    1
     7    15    16   ar
     8    16    17   ar
     9    17    18   ar
    10    18     1    1
    11     1     2   ar
    12     2     3   ar
    13     3    34    1
    14    34    35    2
    15    34    36   am
    16    36    38    1
    17    38    39    1
    18    39    40    1
    19    39    41    1
    20    39    42    1
    21     3     4   ar
    22     4     5   ar
    23     5     6    1
    24     6     7    2
    25     6     8   am
    26     8     9    1
    27     9    10    1
    28    10    11    1
    29    11    12    1
    30    11    13    1
    31    13    14    1
    32    18    19   ar
    33    19    20    1
    34    19    21   ar
    35    21    22    1
    36    29    30    1
    37    30    31    1
    38    30    32    1
    39    30    33    1
    40    21    15   ar
    41     5     1   ar
    42    14     8    1
    43    26    27    1
    44    36    37    1
    45    42    43    1
@<TRIPOS>MOLECULE
*****
 43 45 0 0 0
SMALL
GASTEIGER

@<TRIPOS>ATOM
      1 C         142.0940  143.0072  161.7450 C.ar    1  UNL1        0.0539
      2 S         141.8070  144.3443  161.1288 S.2     1  UNL1       -0.0619
      3 C         141.7154  144.1599  159.6430 C.ar    1  UNL1        0.1641
      4 N         141.9458  142.7088  159.3409 N.ar    1  UNL1       -0.2291
      5 C         142.1797  141.9964  160.6401 C.ar    1  UNL1        0.1414
      6 C         142.4517  140.5305  160.8052 C.2     1  UNL1        0.2673
      7 O         143.7087  139.9332  160.2454 O.2     1  UNL1       -0.2682
      8 N         141.4669  139.6620  161.5300 N.am    1  UNL1       -0.2747
      9 C         141.7389  138.1961  161.6952 C.3     1  UNL1        0.0966
     10 C         140.7539  137.3275  162.4200 C.3     1  UNL1        0.0568
     11 C         139.4970  137.9247  162.9798 C.3     1  UNL1        0.1644
     12 F         138.5120  137.0562  163.7047 F       1  UNL1       -0.2372
     13 C         139.2249  139.3906  162.8147 C.3     1  UNL1        0.0568
     14 C         140.2099  140.2592  162.0899 C.3     1  UNL1        0.0966
     15 C         142.6074  142.1744  166.1374 C.ar    1  UNL1        0.1333
     16 C         143.7159  141.8546  165.1788 C.ar    1  UNL1        0.0208
     17 C         143.5448  142.1323  163.7147 C.ar    1  UNL1        0.0028
     18 C         142.2651  142.7296  163.2092 C.ar    1  UNL1        0.0191
     19 C         141.1566  143.0493  164.1677 C.ar    1  UNL1        0.0700
     20 CL        139.8768  143.6466  163.6622 Cl      1  UNL1       -0.0813
     21 C         141.3277  142.7717  165.6319 C.ar    1  UNL1        0.0867
     22 CL        140.2191  143.0914  166.5905 Cl      1  UNL1       -0.0800
     23 S         142.7785  141.8968  167.6015 S.O2    1  UNL1        0.0613
     24 O         141.7713  140.7891  167.5092 O.2     1  UNL1       -0.1530
     25 O         143.7858  143.0044  167.6938 O.2     1  UNL1       -0.1530
     26 N         142.9497  141.6192  169.0656 N.3     1  UNL1       -0.1723
     27 H         143.1781  140.6289  169.1528 H       1  UNL1        0.1491
     28 C         141.3759  140.8224  170.9731 C.3     1  UNL1        0.0278
     29 C         141.8218  141.8888  170.0170 C.3     1  UNL1        0.1701
     30 C         141.1397  143.2247  170.0123 C.3     1  UNL1        0.4118
     31 F         140.4576  144.5607  170.0075 F       1  UNL1       -0.1685
     32 F         142.4326  143.8862  170.3876 F       1  UNL1       -0.1685
     33 F         139.8468  142.5633  169.6369 F       1  UNL1       -0.1685
     34 C         141.4415  145.2375  158.6361 C.2     1  UNL1        0.2699
     35 O         142.5567  146.1211  158.1611 O.2     1  UNL1       -0.2679
     36 N         140.0525  145.4313  158.1041 N.am    1  UNL1       -0.2969
     37 H         139.3206  144.8514  158.4159 H       1  UNL1        0.1499
     38 C         139.7786  146.5089  157.0972 C.3     1  UNL1        0.1166
     39 C         139.2428  146.1508  155.7426 C.3     1  UNL1        0.1064
     40 C         139.3152  147.5920  155.3331 C.3     1  UNL1        0.0311
     41 C         139.1704  144.7096  156.1522 C.3     1  UNL1        0.0311
     42 O         138.7070  145.7928  154.3881 O.3     1  UNL1       -0.3851
     43 H         138.6356  146.5943  153.8464 H       1  UNL1        0.2103
@<TRIPOS>BOND
     1    29    28    1
     2    29    26    1
     3    26    23    1
     4    23    24    2
     5    23    25    2
     6    23    15    1
     7    15    16   ar
     8    16    17   ar
     9    17    18   ar
    10    18     1    1
    11     1     2   ar
    12     2     3   ar
    13     3    34    1
    14    34    35    2
    15    34    36   am
    16    36    38    1
    17    38    39    1
    18    39    40    1
    19    39    41    1
    20    39    42    1
    21     3     4   ar
    22     4     5   ar
    23     5     6    1
    24     6     7    2
    25     6     8   am
    26     8     9    1
    27     9    10    1
    28    10    11    1
    29    11    12    1
    30    11    13    1
    31    13    14    1
    32    18    19   ar
    33    19    20    1
    34    19    21   ar
    35    21    22    1
    36    29    30    1
    37    30    31    1
    38    30    32    1
    39    30    33    1
    40    21    15   ar
    41     5     1   ar
    42    14     8    1
    43    26    27    1
    44    36    37    1
    45    42    43    1
@<TRIPOS>MOLECULE
*****
 43 45 0 0 0
SMALL
GASTEIGER

@<TRIPOS>ATOM
      1 C         142.5337  139.5094  161.0813 C.ar    1  UNL1        0.0539
      2 S         143.7030  139.6116  160.1473 S.2     1  UNL1       -0.0619
      3 C         143.1721  139.6853  158.7463 C.ar    1  UNL1        0.1641
      4 N         141.6747  139.6286  158.8145 N.ar    1  UNL1       -0.2291
      5 C         141.2802  139.5199  160.2576 C.ar    1  UNL1        0.1414
      6 C         139.8783  139.4364  160.7844 C.2     1  UNL1        0.2673
      7 O         139.1023  138.1594  160.6525 O.2     1  UNL1       -0.2682
      8 N         139.2523  140.6297  161.4432 N.am    1  UNL1       -0.2747
      9 C         137.8503  140.5462  161.9700 C.3     1  UNL1        0.0966
     10 C         137.2243  141.7396  162.6288 C.3     1  UNL1        0.0568
     11 C         138.0002  143.0165  162.7608 C.3     1  UNL1        0.1644
     12 F         137.3742  144.2098  163.4195 F       1  UNL1       -0.2372
     13 C         139.4022  143.1001  162.2339 C.3     1  UNL1        0.0568
     14 C         140.0282  141.9067  161.5752 C.3     1  UNL1        0.0966
     15 C         142.7488  139.2218  165.5670 C.ar    1  UNL1        0.1333
     16 C         142.2853  138.0445  164.7613 C.ar    1  UNL1        0.0208
     17 C         142.2136  138.1404  163.2661 C.ar    1  UNL1        0.0028
     18 C         142.6054  139.4135  162.5766 C.ar    1  UNL1        0.0191
     19 C         143.0690  140.5908  163.3822 C.ar    1  UNL1        0.0700
     20 CL        143.4608  141.8640  162.6927 Cl      1  UNL1       -0.0813
     21 C         143.1407  140.4949  164.8774 C.ar    1  UNL1        0.0867
     22 CL        143.6042  141.6723  165.6831 Cl      1  UNL1       -0.0800
     23 S         142.8205  139.1259  167.0622 S.O2    1  UNL1        0.0613
     24 O         141.5112  139.8496  167.1714 O.2     1  UNL1       -0.1530
     25 O         144.1299  138.4022  166.9530 O.2     1  UNL1       -0.1530
     26 N         142.8922  139.0300  168.5574 N.3     1  UNL1       -0.1723
     27 H         142.3138  138.2352  168.8296 H       1  UNL1        0.1491
     28 C         143.2442  141.4688  169.3811 C.3     1  UNL1        0.0278
     29 C         142.4606  140.1900  169.4049 C.3     1  UNL1        0.1701
     30 C         141.2455  140.0711  170.2762 C.3     1  UNL1        0.4118
     31 F         140.0303  139.9522  171.1475 F       1  UNL1       -0.1685
     32 F         141.5175  138.6070  170.4560 F       1  UNL1       -0.1685
     33 F         140.9734  141.5352  170.0965 F       1  UNL1       -0.1685
     34 C         143.9943  139.7962  157.4966 C.2     1  UNL1        0.2699
     35 O         143.9109  138.7281  156.4467 O.2     1  UNL1       -0.2679
     36 N         144.8999  140.9751  157.2968 N.am    1  UNL1       -0.2969
     37 H         144.9546  141.6761  157.9859 H       1  UNL1        0.1499
     38 C         145.7220  141.0860  156.0471 C.3     1  UNL1        0.1166
     39 C         146.2470  142.4218  155.6108 C.3     1  UNL1        0.1064
     40 C         145.4811  142.3032  154.3265 C.3     1  UNL1        0.0311
     41 C         147.0128  142.5403  156.8952 C.3     1  UNL1        0.0311
     42 O         146.7719  143.7575  155.1746 O.3     1  UNL1       -0.3851
     43 H         146.4181  143.9732  154.2975 H       1  UNL1        0.2103
@<TRIPOS>BOND
     1    29    28    1
     2    29    26    1
     3    26    23    1
     4    23    24    2
     5    23    25    2
     6    23    15    1
     7    15    16   ar
     8    16    17   ar
     9    17    18   ar
    10    18     1    1
    11     1     2   ar
    12     2     3   ar
    13     3    34    1
    14    34    35    2
    15    34    36   am
    16    36    38    1
    17    38    39    1
    18    39    40    1
    19    39    41    1
    20    39    42    1
    21     3     4   ar
    22     4     5   ar
    23     5     6    1
    24     6     7    2
    25     6     8   am
    26     8     9    1
    27     9    10    1
    28    10    11    1
    29    11    12    1
    30    11    13    1
    31    13    14    1
    32    18    19   ar
    33    19    20    1
    34    19    21   ar
    35    21    22    1
    36    29    30    1
    37    30    31    1
    38    30    32    1
    39    30    33    1
    40    21    15   ar
    41     5     1   ar
    42    14     8    1
    43    26    27    1
    44    36    37    1
    45    42    43    1
@<TRIPOS>MOLECULE
*****
 43 45 0 0 0
SMALL
GASTEIGER

@<TRIPOS>ATOM
      1 C         142.4745  139.2621  162.5595 C.ar    1  UNL1        0.0539
      2 S         142.1192  138.0837  161.7022 S.2     1  UNL1       -0.0619
      3 C         142.9578  138.1445  160.4600 C.ar    1  UNL1        0.1641
      4 N         143.8314  139.3605  160.5496 N.ar    1  UNL1       -0.2291
      5 C         143.5327  140.0512  161.8472 C.ar    1  UNL1        0.1414
      6 C         144.1788  141.3101  162.3450 C.2     1  UNL1        0.2673
      7 O         145.6317  141.3105  162.7182 O.2     1  UNL1       -0.2682
      8 N         143.3722  142.5685  162.4696 N.am    1  UNL1       -0.2747
      9 C         144.0183  143.8274  162.9674 C.3     1  UNL1        0.0966
     10 C         143.2115  145.0858  163.0919 C.3     1  UNL1        0.0568
     11 C         141.7588  145.0855  162.7187 C.3     1  UNL1        0.1644
     12 F         140.9520  146.3439  162.8433 F       1  UNL1       -0.2372
     13 C         141.1126  143.8266  162.2209 C.3     1  UNL1        0.0568
     14 C         141.9193  142.5682  162.0963 C.3     1  UNL1        0.0966
     15 C         140.6808  140.2555  166.5652 C.ar    1  UNL1        0.1333
     16 C         139.8889  140.4828  165.3117 C.ar    1  UNL1        0.0208
     17 C         140.4869  140.1517  163.9765 C.ar    1  UNL1        0.0028
     18 C         141.8766  139.5932  163.8948 C.ar    1  UNL1        0.0191
     19 C         142.6684  139.3660  165.1482 C.ar    1  UNL1        0.0700
     20 CL        144.0582  138.8075  165.0666 Cl      1  UNL1       -0.0813
     21 C         142.0705  139.6971  166.4835 C.ar    1  UNL1        0.0867
     22 CL        142.8624  139.4698  167.7370 Cl      1  UNL1       -0.0800
     23 S         140.0829  140.5867  167.9004 S.O2    1  UNL1        0.0613
     24 O         140.5583  142.0026  167.7622 O.2     1  UNL1       -0.1530
     25 O         139.6074  139.1707  168.0387 O.2     1  UNL1       -0.1530
     26 N         139.4849  140.9178  169.2357 N.3     1  UNL1       -0.1723
     27 H         138.6569  141.4854  169.0549 H       1  UNL1        0.1491
     28 C         141.3409  140.9222  171.0538 C.3     1  UNL1        0.0278
     29 C         140.2980  141.6521  170.2602 C.3     1  UNL1        0.1701
     30 C         140.0682  143.1163  170.4912 C.3     1  UNL1        0.4118
     31 F         139.8385  144.5805  170.7223 F       1  UNL1       -0.1685
     32 F         141.4863  143.4015  170.0940 F       1  UNL1       -0.1685
     33 F         138.6502  142.8311  170.8884 F       1  UNL1       -0.1685
     34 C         142.9280  137.1618  159.3271 C.2     1  UNL1        0.2699
     35 O         143.2912  135.7267  159.5693 O.2     1  UNL1       -0.2679
     36 N         142.5351  137.6142  157.9520 N.am    1  UNL1       -0.2969
     37 H         142.2967  138.5561  157.7930 H       1  UNL1        0.1499
     38 C         142.5053  136.6315  156.8191 C.3     1  UNL1        0.1166
     39 C         143.7078  136.4665  155.9376 C.3     1  UNL1        0.1064
     40 C         143.6634  134.9830  156.1547 C.3     1  UNL1        0.0311
     41 C         143.7521  137.9502  155.7205 C.3     1  UNL1        0.0311
     42 O         144.9102  136.3017  155.0561 O.3     1  UNL1       -0.3851
     43 H         145.1423  135.3616  154.9984 H       1  UNL1        0.2103
@<TRIPOS>BOND
     1    29    28    1
     2    29    26    1
     3    26    23    1
     4    23    24    2
     5    23    25    2
     6    23    15    1
     7    15    16   ar
     8    16    17   ar
     9    17    18   ar
    10    18     1    1
    11     1     2   ar
    12     2     3   ar
    13     3    34    1
    14    34    35    2
    15    34    36   am
    16    36    38    1
    17    38    39    1
    18    39    40    1
    19    39    41    1
    20    39    42    1
    21     3     4   ar
    22     4     5   ar
    23     5     6    1
    24     6     7    2
    25     6     8   am
    26     8     9    1
    27     9    10    1
    28    10    11    1
    29    11    12    1
    30    11    13    1
    31    13    14    1
    32    18    19   ar
    33    19    20    1
    34    19    21   ar
    35    21    22    1
    36    29    30    1
    37    30    31    1
    38    30    32    1
    39    30    33    1
    40    21    15   ar
    41     5     1   ar
    42    14     8    1
    43    26    27    1
    44    36    37    1
    45    42    43    1
