@<TRIPOS>MOLECULE
*****
 32 36 0 0 0
SMALL
GASTEIGER

@<TRIPOS>ATOM
      1 C         141.3987  142.5008  166.7628 C.ar    1  UNL1        0.0532
      2 C         140.0626  143.1640  166.9215 C.ar    1  UNL1        0.0043
      3 C         139.4694  143.9379  165.7817 C.ar    1  UNL1       -0.0044
      4 C         140.2122  144.0487  164.4832 C.ar    1  UNL1       -0.0247
      5 C         141.5482  143.3856  164.3246 C.ar    1  UNL1       -0.0245
      6 C         142.1415  142.6117  165.4643 C.ar    1  UNL1        0.0001
      7 C         142.4488  143.3715  163.1250 C.3     1  UNL1        0.0433
      8 C         142.2357  144.0170  161.7879 C.3     1  UNL1        0.0768
      9 N         141.0694  144.8360  161.3201 N.3     1  UNL1       -0.2720
     10 C         139.8281  145.2119  162.0738 C.3     1  UNL1        0.0768
     11 C         139.4467  144.8615  163.4815 C.3     1  UNL1        0.0433
     12 C         142.6436  138.5572  170.0459 C.3     1  UNL1        0.0742
     13 C         142.5641  139.9143  169.4116 C.ar    1  UNL1        0.1442
     14 C         143.2454  141.1576  169.9015 C.ar    1  UNL1        0.1349
     15 N         142.8917  142.2780  168.9688 N.ar    1  UNL1       -0.2070
     16 C         141.9919  141.7270  167.9026 C.ar    1  UNL1        0.2293
     17 O         141.7895  140.2661  168.1763 O.2     1  UNL1       -0.4389
     18 C         141.1557  145.3468  159.9124 C.3     1  UNL1        0.0730
     19 C         140.2006  144.8424  158.8715 C.3     1  UNL1        0.0294
     20 C         140.3724  143.4663  158.2998 C.3     1  UNL1        0.0666
     21 S         139.3559  142.4019  158.5886 S.3     1  UNL1       -0.0756
     22 C         138.9004  142.1624  159.9976 C.ar    1  UNL1        0.1932
     23 N         137.6809  142.7516  160.6421 N.ar    1  UNL1       -0.1221
     24 N         137.6112  142.2450  162.0523 N.ar    1  UNL1       -0.1277
     25 C         138.7877  141.3426  162.2792 C.ar    1  UNL1        0.1729
     26 N         139.5845  141.2915  161.0093 N.ar    1  UNL1       -0.2880
     27 C         140.8442  140.5073  160.7899 C.3     1  UNL1        0.1340
     28 C         139.1107  140.6184  163.5525 C.ar    1  UNL1        0.0654
     29 C         138.2955  140.6419  164.8113 C.ar    1  UNL1        0.0101
     30 C         138.9867  139.7816  165.8274 C.ar    1  UNL1        0.0076
     31 C         140.2290  139.2264  165.1964 C.ar    1  UNL1        0.0355
     32 S         140.3057  139.7436  163.7904 S.2     1  UNL1       -0.0833
@<TRIPOS>BOND
     1    12    13    1
     2    13    14   ar
     3    14    15   ar
     4    15    16   ar
     5    16     1    1
     6     1     2   ar
     7     2     3   ar
     8     3     4   ar
     9     4     5   ar
    10     5     6   ar
    11     5     7    1
    12     7     8    1
    13     8     9    1
    14     9    18    1
    15    18    19    1
    16    19    20    1
    17    20    21    1
    18    21    22    1
    19    22    23   ar
    20    23    24   ar
    21    24    25   ar
    22    25    28    1
    23    28    29   ar
    24    29    30   ar
    25    30    31   ar
    26    31    32   ar
    27    25    26   ar
    28    26    27    1
    29     9    10    1
    30    10    11    1
    31    16    17   ar
    32    17    13   ar
    33     6     1   ar
    34    26    22   ar
    35    11     4    1
    36    32    28   ar
@<TRIPOS>MOLECULE
*****
 32 36 0 0 0
SMALL
GASTEIGER

@<TRIPOS>ATOM
      1 C         142.6367  138.4485  159.8878 C.ar    1  UNL1        0.0532
      2 C         143.6741  139.5314  159.9239 C.ar    1  UNL1        0.0043
      3 C         144.1609  140.0602  161.2405 C.ar    1  UNL1       -0.0044
      4 C         143.6102  139.5061  162.5211 C.ar    1  UNL1       -0.0247
      5 C         142.5729  138.4233  162.4850 C.ar    1  UNL1       -0.0245
      6 C         142.0861  137.8944  161.1684 C.ar    1  UNL1        0.0001
      7 C         141.8973  137.7366  163.6349 C.3     1  UNL1        0.0433
      8 C         142.0922  137.9634  165.1048 C.3     1  UNL1        0.0768
      9 N         143.0108  138.9327  165.7878 N.3     1  UNL1       -0.2720
     10 C         143.9614  139.9147  165.1697 C.3     1  UNL1        0.0768
     11 C         144.2282  140.1699  163.7159 C.3     1  UNL1        0.0433
     12 C         139.5207  137.2763  155.7894 C.3     1  UNL1        0.0742
     13 C         140.7177  137.3810  156.6874 C.ar    1  UNL1        0.1442
     14 C         142.0841  136.8313  156.4029 C.ar    1  UNL1        0.1349
     15 N         142.9693  137.1643  157.5672 N.ar    1  UNL1       -0.2070
     16 C         142.1500  137.9198  158.5712 C.ar    1  UNL1        0.2293
     17 O         140.7584  138.0537  158.0274 O.2     1  UNL1       -0.4389
     18 C         142.9740  138.9181  167.2873 C.3     1  UNL1        0.0730
     19 C         142.5733  140.1523  168.0398 C.3     1  UNL1        0.0294
     20 C         141.4520  140.0935  169.0344 C.3     1  UNL1        0.0666
     21 S         140.1050  140.6500  168.6798 S.3     1  UNL1       -0.0756
     22 C         139.3158  140.0455  167.5566 C.ar    1  UNL1        0.1932
     23 N         138.2603  138.9880  167.6899 N.ar    1  UNL1       -0.1221
     24 N         137.7356  138.6812  166.3186 N.ar    1  UNL1       -0.1277
     25 C         138.4668  139.5492  165.3377 C.ar    1  UNL1        0.1729
     26 N         139.4434  140.3923  166.1028 N.ar    1  UNL1       -0.2880
     27 C         140.3827  141.4046  165.5170 C.3     1  UNL1        0.1340
     28 C         138.2581  139.5703  163.8525 C.ar    1  UNL1        0.0654
     29 C         138.5110  138.4309  162.9103 C.ar    1  UNL1        0.0101
     30 C         138.1690  138.8909  161.5241 C.ar    1  UNL1        0.0076
     31 C         137.7047  140.3146  161.6096 C.ar    1  UNL1        0.0355
     32 S         137.7598  140.7345  163.0486 S.2     1  UNL1       -0.0833
@<TRIPOS>BOND
     1    12    13    1
     2    13    14   ar
     3    14    15   ar
     4    15    16   ar
     5    16     1    1
     6     1     2   ar
     7     2     3   ar
     8     3     4   ar
     9     4     5   ar
    10     5     6   ar
    11     5     7    1
    12     7     8    1
    13     8     9    1
    14     9    18    1
    15    18    19    1
    16    19    20    1
    17    20    21    1
    18    21    22    1
    19    22    23   ar
    20    23    24   ar
    21    24    25   ar
    22    25    28    1
    23    28    29   ar
    24    29    30   ar
    25    30    31   ar
    26    31    32   ar
    27    25    26   ar
    28    26    27    1
    29     9    10    1
    30    10    11    1
    31    16    17   ar
    32    17    13   ar
    33     6     1   ar
    34    26    22   ar
    35    11     4    1
    36    32    28   ar
@<TRIPOS>MOLECULE
*****
 32 36 0 0 0
SMALL
GASTEIGER

@<TRIPOS>ATOM
      1 C         142.2042  139.7373  166.1202 C.ar    1  UNL1        0.0532
      2 C         142.7767  138.6016  165.3250 C.ar    1  UNL1        0.0043
      3 C         142.9344  138.7311  163.8389 C.ar    1  UNL1       -0.0044
      4 C         142.5195  139.9963  163.1481 C.ar    1  UNL1       -0.0247
      5 C         141.9470  141.1319  163.9433 C.ar    1  UNL1       -0.0245
      6 C         141.7893  141.0025  165.4293 C.ar    1  UNL1        0.0001
      7 C         141.4739  142.4696  163.4565 C.3     1  UNL1        0.0433
      8 C         141.4566  143.0019  162.0542 C.3     1  UNL1        0.0768
      9 N         141.9080  142.3281  160.7925 N.3     1  UNL1       -0.2720
     10 C         142.4883  140.9555  160.6213 C.3     1  UNL1        0.0768
     11 C         142.7605  139.9177  161.6696 C.3     1  UNL1        0.0433
     12 C         140.2181  140.0304  171.0039 C.3     1  UNL1        0.0742
     13 C         141.1336  139.7425  169.8510 C.ar    1  UNL1        0.1442
     14 C         142.4739  139.0744  169.9351 C.ar    1  UNL1        0.1349
     15 N         143.0382  138.9911  168.5477 N.ar    1  UNL1       -0.2070
     16 C         142.0465  139.6078  167.6062 C.ar    1  UNL1        0.2293
     17 O         140.8694  140.0721  168.4117 O.2     1  UNL1       -0.4389
     18 C         141.7595  143.1333  159.5357 C.3     1  UNL1        0.0730
     19 C         140.5064  143.9215  159.2934 C.3     1  UNL1        0.0294
     20 C         139.4320  143.3678  158.4052 C.3     1  UNL1        0.0666
     21 S         138.5872  142.2210  158.8754 S.3     1  UNL1       -0.0756
     22 C         138.3889  141.9882  160.3439 C.ar    1  UNL1        0.1932
     23 N         137.8315  142.9758  161.3258 N.ar    1  UNL1       -0.1221
     24 N         137.8113  142.3250  162.6771 N.ar    1  UNL1       -0.1277
     25 C         138.3561  140.9352  162.5304 C.ar    1  UNL1        0.1729
     26 N         138.7132  140.7270  161.0884 N.ar    1  UNL1       -0.2880
     27 C         139.2927  139.4771  160.4952 C.3     1  UNL1        0.1340
     28 C         138.5160  139.9300  163.6322 C.ar    1  UNL1        0.0654
     29 C         139.0194  138.5255  163.4782 C.ar    1  UNL1        0.0101
     30 C         139.0150  137.8803  164.8323 C.ar    1  UNL1        0.0076
     31 C         138.5088  138.8861  165.8233 C.ar    1  UNL1        0.0355
     32 S         138.2004  140.1529  165.0816 S.2     1  UNL1       -0.0833
@<TRIPOS>BOND
     1    12    13    1
     2    13    14   ar
     3    14    15   ar
     4    15    16   ar
     5    16     1    1
     6     1     2   ar
     7     2     3   ar
     8     3     4   ar
     9     4     5   ar
    10     5     6   ar
    11     5     7    1
    12     7     8    1
    13     8     9    1
    14     9    18    1
    15    18    19    1
    16    19    20    1
    17    20    21    1
    18    21    22    1
    19    22    23   ar
    20    23    24   ar
    21    24    25   ar
    22    25    28    1
    23    28    29   ar
    24    29    30   ar
    25    30    31   ar
    26    31    32   ar
    27    25    26   ar
    28    26    27    1
    29     9    10    1
    30    10    11    1
    31    16    17   ar
    32    17    13   ar
    33     6     1   ar
    34    26    22   ar
    35    11     4    1
    36    32    28   ar
@<TRIPOS>MOLECULE
*****
 32 36 0 0 0
SMALL
GASTEIGER

@<TRIPOS>ATOM
      1 C         139.7418  139.6022  166.4096 C.ar    1  UNL1        0.0532
      2 C         138.8087  138.5625  165.8634 C.ar    1  UNL1        0.0043
      3 C         139.0205  138.0156  164.4828 C.ar    1  UNL1       -0.0044
      4 C         140.1655  138.5086  163.6484 C.ar    1  UNL1       -0.0247
      5 C         141.0985  139.5482  164.1946 C.ar    1  UNL1       -0.0245
      6 C         140.8867  140.0950  165.5752 C.ar    1  UNL1        0.0001
      7 C         142.2928  140.1721  163.5353 C.3     1  UNL1        0.0433
      8 C         142.8488  139.9104  162.1669 C.3     1  UNL1        0.0768
      9 N         142.3480  138.9602  161.1200 N.3     1  UNL1       -0.2720
     10 C         141.1674  138.0369  161.1827 C.3     1  UNL1        0.0768
     11 C         140.1961  137.8359  162.3080 C.3     1  UNL1        0.0433
     12 C         139.9842  142.7088  170.6724 C.3     1  UNL1        0.0742
     13 C         139.6414  141.5769  169.7496 C.ar    1  UNL1        0.1442
     14 C         138.7666  140.4041  170.0800 C.ar    1  UNL1        0.1349
     15 N         138.6978  139.5215  168.8690 N.ar    1  UNL1       -0.2070
     16 C         139.5300  140.1490  167.7902 C.ar    1  UNL1        0.2293
     17 O         140.1131  141.4193  168.3345 O.2     1  UNL1       -0.4389
     18 C         143.1313  138.9290  159.8412 C.3     1  UNL1        0.0730
     19 C         143.7826  140.1798  159.3298 C.3     1  UNL1        0.0294
     20 C         142.9563  141.2328  158.6527 C.3     1  UNL1        0.0666
     21 S         143.1515  142.6785  159.0014 S.3     1  UNL1       -0.0756
     22 C         142.9207  143.1488  160.4070 C.ar    1  UNL1        0.1932
     23 N         143.9727  143.6417  161.3558 N.ar    1  UNL1       -0.1221
     24 N         143.2995  144.0063  162.6457 N.ar    1  UNL1       -0.1277
     25 C         141.8314  143.7387  162.4941 C.ar    1  UNL1        0.1729
     26 N         141.5972  143.2087  161.1105 N.ar    1  UNL1       -0.2880
     27 C         140.2723  142.8089  160.5320 C.3     1  UNL1        0.1340
     28 C         140.7817  143.9618  163.5421 C.ar    1  UNL1        0.0654
     29 C         140.7647  143.3588  164.9154 C.ar    1  UNL1        0.0101
     30 C         139.5372  143.8515  165.6229 C.ar    1  UNL1        0.0076
     31 C         138.7955  144.7590  164.6868 C.ar    1  UNL1        0.0355
     32 S         139.5647  144.8272  163.4008 S.2     1  UNL1       -0.0833
@<TRIPOS>BOND
     1    12    13    1
     2    13    14   ar
     3    14    15   ar
     4    15    16   ar
     5    16     1    1
     6     1     2   ar
     7     2     3   ar
     8     3     4   ar
     9     4     5   ar
    10     5     6   ar
    11     5     7    1
    12     7     8    1
    13     8     9    1
    14     9    18    1
    15    18    19    1
    16    19    20    1
    17    20    21    1
    18    21    22    1
    19    22    23   ar
    20    23    24   ar
    21    24    25   ar
    22    25    28    1
    23    28    29   ar
    24    29    30   ar
    25    30    31   ar
    26    31    32   ar
    27    25    26   ar
    28    26    27    1
    29     9    10    1
    30    10    11    1
    31    16    17   ar
    32    17    13   ar
    33     6     1   ar
    34    26    22   ar
    35    11     4    1
    36    32    28   ar
@<TRIPOS>MOLECULE
*****
 32 36 0 0 0
SMALL
GASTEIGER

@<TRIPOS>ATOM
      1 C         142.9955  141.9482  166.5268 C.ar    1  UNL1        0.0532
      2 C         144.0012  142.7769  165.7839 C.ar    1  UNL1        0.0043
      3 C         144.4439  142.3663  164.4108 C.ar    1  UNL1       -0.0044
      4 C         143.8809  141.1270  163.7805 C.ar    1  UNL1       -0.0247
      5 C         142.8752  140.2984  164.5234 C.ar    1  UNL1       -0.0245
      6 C         142.4325  140.7089  165.8964 C.ar    1  UNL1        0.0001
      7 C         142.1938  139.0369  164.0822 C.3     1  UNL1        0.0433
      8 C         142.3499  138.2927  162.7892 C.3     1  UNL1        0.0768
      9 N         143.2258  138.6260  161.6182 N.3     1  UNL1       -0.2720
     10 C         144.1621  139.7859  161.4507 C.3     1  UNL1        0.0768
     11 C         144.4537  140.8990  162.4130 C.3     1  UNL1        0.0433
     12 C         139.9595  143.3130  170.6256 C.3     1  UNL1        0.0742
     13 C         141.1573  142.9862  169.7839 C.ar    1  UNL1        0.1442
     14 C         142.5857  142.9953  170.2417 C.ar    1  UNL1        0.1349
     15 N         143.4482  142.6076  169.0773 N.ar    1  UNL1       -0.2070
     16 C         142.5528  142.3588  167.8998 C.ar    1  UNL1        0.2293
     17 O         141.1370  142.5928  168.3365 O.2     1  UNL1       -0.4389
     18 C         143.1564  137.6735  160.4615 C.3     1  UNL1        0.0730
     19 C         142.9229  138.1940  159.0742 C.3     1  UNL1        0.0294
     20 C         141.5283  138.2719  158.5271 C.3     1  UNL1        0.0666
     21 S         140.7255  139.5276  158.6961 S.3     1  UNL1       -0.0756
     22 C         140.2839  139.9570  160.0638 C.ar    1  UNL1        0.1932
     23 N         139.3416  139.2105  160.9609 N.ar    1  UNL1       -0.1221
     24 N         139.1823  140.0005  162.2260 N.ar    1  UNL1       -0.1277
     25 C         140.0260  141.2353  162.1107 C.ar    1  UNL1        0.1729
     26 N         140.7069  141.2085  160.7744 N.ar    1  UNL1       -0.2880
     27 C         141.6458  142.2502  160.2422 C.3     1  UNL1        0.1340
     28 C         140.1646  142.3086  163.1494 C.ar    1  UNL1        0.0654
     29 C         141.1498  143.4393  163.1229 C.ar    1  UNL1        0.0101
     30 C         140.9365  144.2691  164.3541 C.ar    1  UNL1        0.0076
     31 C         139.8194  143.6512  165.1417 C.ar    1  UNL1        0.0355
     32 S         139.3423  142.4395  164.3971 S.2     1  UNL1       -0.0833
@<TRIPOS>BOND
     1    12    13    1
     2    13    14   ar
     3    14    15   ar
     4    15    16   ar
     5    16     1    1
     6     1     2   ar
     7     2     3   ar
     8     3     4   ar
     9     4     5   ar
    10     5     6   ar
    11     5     7    1
    12     7     8    1
    13     8     9    1
    14     9    18    1
    15    18    19    1
    16    19    20    1
    17    20    21    1
    18    21    22    1
    19    22    23   ar
    20    23    24   ar
    21    24    25   ar
    22    25    28    1
    23    28    29   ar
    24    29    30   ar
    25    30    31   ar
    26    31    32   ar
    27    25    26   ar
    28    26    27    1
    29     9    10    1
    30    10    11    1
    31    16    17   ar
    32    17    13   ar
    33     6     1   ar
    34    26    22   ar
    35    11     4    1
    36    32    28   ar
@<TRIPOS>MOLECULE
*****
 32 36 0 0 0
SMALL
GASTEIGER

@<TRIPOS>ATOM
      1 C         139.4607  140.3940  166.8347 C.ar    1  UNL1        0.0532
      2 C         138.7835  139.1274  166.4019 C.ar    1  UNL1        0.0043
      3 C         138.3293  138.9674  164.9813 C.ar    1  UNL1       -0.0044
      4 C         138.5523  140.0740  163.9934 C.ar    1  UNL1       -0.0247
      5 C         139.2294  141.3405  164.4262 C.ar    1  UNL1       -0.0245
      6 C         139.6836  141.5005  165.8468 C.ar    1  UNL1        0.0001
      7 C         139.5473  142.5575  163.6089 C.3     1  UNL1        0.0433
      8 C         139.2664  142.8084  162.1569 C.3     1  UNL1        0.0768
      9 N         138.5984  141.9044  161.1638 N.3     1  UNL1       -0.2720
     10 C         138.0462  140.5262  161.3771 C.3     1  UNL1        0.0768
     11 C         138.0257  139.7115  162.6365 C.3     1  UNL1        0.0433
     12 C         142.0389  142.0807  171.1228 C.3     1  UNL1        0.0742
     13 C         141.0999  141.3292  170.2263 C.ar    1  UNL1        0.1442
     14 C         140.1277  140.2711  170.6564 C.ar    1  UNL1        0.1349
     15 N         139.3952  139.7919  169.4381 N.ar    1  UNL1       -0.2070
     16 C         139.9148  140.5539  168.2553 C.ar    1  UNL1        0.2293
     17 O         140.9684  141.5041  168.7424 O.2     1  UNL1       -0.4389
     18 C         138.4649  142.4509  159.7732 C.3     1  UNL1        0.0730
     19 C         139.1318  141.7522  158.6255 C.3     1  UNL1        0.0294
     20 C         140.6182  141.8500  158.4492 C.3     1  UNL1        0.0666
     21 S         141.4744  140.6290  158.6096 S.3     1  UNL1       -0.0756
     22 C         141.4516  139.8609  159.8978 C.ar    1  UNL1        0.1932
     23 N         140.8341  138.5101  160.1081 N.ar    1  UNL1       -0.1221
     24 N         141.0431  138.1230  161.5422 N.ar    1  UNL1       -0.1277
     25 C         141.7897  139.2346  162.2182 C.ar    1  UNL1        0.1729
     26 N         142.0422  140.3087  161.2019 N.ar    1  UNL1       -0.2880
     27 C         142.7593  141.6032  161.4468 C.3     1  UNL1        0.1340
     28 C         142.2100  139.2666  163.6577 C.ar    1  UNL1        0.0654
     29 C         141.9736  138.1848  164.6695 C.ar    1  UNL1        0.0101
     30 C         142.5581  138.6355  165.9753 C.ar    1  UNL1        0.0076
     31 C         143.1558  139.9960  165.7706 C.ar    1  UNL1        0.0355
     32 S         142.9407  140.3860  164.3382 S.2     1  UNL1       -0.0833
@<TRIPOS>BOND
     1    12    13    1
     2    13    14   ar
     3    14    15   ar
     4    15    16   ar
     5    16     1    1
     6     1     2   ar
     7     2     3   ar
     8     3     4   ar
     9     4     5   ar
    10     5     6   ar
    11     5     7    1
    12     7     8    1
    13     8     9    1
    14     9    18    1
    15    18    19    1
    16    19    20    1
    17    20    21    1
    18    21    22    1
    19    22    23   ar
    20    23    24   ar
    21    24    25   ar
    22    25    28    1
    23    28    29   ar
    24    29    30   ar
    25    30    31   ar
    26    31    32   ar
    27    25    26   ar
    28    26    27    1
    29     9    10    1
    30    10    11    1
    31    16    17   ar
    32    17    13   ar
    33     6     1   ar
    34    26    22   ar
    35    11     4    1
    36    32    28   ar
@<TRIPOS>MOLECULE
*****
 32 36 0 0 0
SMALL
GASTEIGER

@<TRIPOS>ATOM
      1 C         142.5479  141.2284  166.2181 C.ar    1  UNL1        0.0532
      2 C         143.4873  142.3967  166.2696 C.ar    1  UNL1        0.0043
      3 C         144.1593  142.8746  165.0166 C.ar    1  UNL1       -0.0044
      4 C         143.8919  142.1842  163.7120 C.ar    1  UNL1       -0.0247
      5 C         142.9526  141.0160  163.6605 C.ar    1  UNL1       -0.0245
      6 C         142.2806  140.5380  164.9135 C.ar    1  UNL1        0.0001
      7 C         142.5495  140.1916  162.4739 C.3     1  UNL1        0.0433
      8 C         142.9863  140.3320  161.0457 C.3     1  UNL1        0.0768
      9 N         143.9339  141.3314  160.4515 N.3     1  UNL1       -0.2720
     10 C         144.6789  142.4372  161.1386 C.3     1  UNL1        0.0768
     11 C         144.6602  142.8168  162.5897 C.3     1  UNL1        0.0433
     12 C         138.8939  140.2920  169.9130 C.3     1  UNL1        0.0742
     13 C         140.1964  140.3201  169.1694 C.ar    1  UNL1        0.1442
     14 C         141.4873  139.7101  169.6292 C.ar    1  UNL1        0.1349
     15 N         142.5255  139.9761  168.5795 N.ar    1  UNL1       -0.2070
     16 C         141.8760  140.7505  167.4711 C.ar    1  UNL1        0.2293
     17 O         140.4366  140.9631  167.8357 O.2     1  UNL1       -0.4389
     18 C         144.1675  141.2087  158.9749 C.3     1  UNL1        0.0730
     19 C         143.5423  142.1939  158.0322 C.3     1  UNL1        0.0294
     20 C         142.1077  142.0348  157.6238 C.3     1  UNL1        0.0666
     21 S         141.0931  143.0606  158.0337 S.3     1  UNL1       -0.0756
     22 C         141.1334  143.6455  159.4144 C.ar    1  UNL1        0.1932
     23 N         142.1318  144.6444  159.9199 N.ar    1  UNL1       -0.1221
     24 N         141.7980  144.9505  161.3499 N.ar    1  UNL1       -0.1277
     25 C         140.5933  144.1407  161.7281 C.ar    1  UNL1        0.1729
     26 N         140.1826  143.3342  160.5319 N.ar    1  UNL1       -0.2880
     27 C         139.0244  142.3833  160.4651 C.3     1  UNL1        0.1340
     28 C         139.9179  144.1380  163.0675 C.ar    1  UNL1        0.0654
     29 C         140.5538  143.7691  164.3748 C.ar    1  UNL1        0.0101
     30 C         139.5169  143.9067  165.4500 C.ar    1  UNL1        0.0076
     31 C         138.2400  144.3608  164.8070 C.ar    1  UNL1        0.0355
     32 S         138.4878  144.5037  163.3345 S.2     1  UNL1       -0.0833
@<TRIPOS>BOND
     1    12    13    1
     2    13    14   ar
     3    14    15   ar
     4    15    16   ar
     5    16     1    1
     6     1     2   ar
     7     2     3   ar
     8     3     4   ar
     9     4     5   ar
    10     5     6   ar
    11     5     7    1
    12     7     8    1
    13     8     9    1
    14     9    18    1
    15    18    19    1
    16    19    20    1
    17    20    21    1
    18    21    22    1
    19    22    23   ar
    20    23    24   ar
    21    24    25   ar
    22    25    28    1
    23    28    29   ar
    24    29    30   ar
    25    30    31   ar
    26    31    32   ar
    27    25    26   ar
    28    26    27    1
    29     9    10    1
    30    10    11    1
    31    16    17   ar
    32    17    13   ar
    33     6     1   ar
    34    26    22   ar
    35    11     4    1
    36    32    28   ar
@<TRIPOS>MOLECULE
*****
 32 36 0 0 0
SMALL
GASTEIGER

@<TRIPOS>ATOM
      1 C         142.1129  139.3665  166.4688 C.ar    1  UNL1        0.0532
      2 C         143.4003  138.9874  165.7987 C.ar    1  UNL1        0.0043
      3 C         143.4182  138.6729  164.3321 C.ar    1  UNL1       -0.0044
      4 C         142.1486  138.7375  163.5357 C.ar    1  UNL1       -0.0247
      5 C         140.8614  139.1166  164.2058 C.ar    1  UNL1       -0.0245
      6 C         140.8434  139.4311  165.6723 C.ar    1  UNL1        0.0001
      7 C         139.4937  139.2401  163.6021 C.3     1  UNL1        0.0433
      8 C         139.0758  139.0151  162.1791 C.3     1  UNL1        0.0768
      9 N         139.9221  138.6109  161.0086 N.3     1  UNL1       -0.2720
     10 C         141.3955  138.3320  160.9717 C.3     1  UNL1        0.0768
     11 C         142.3864  138.3883  162.0964 C.3     1  UNL1        0.0433
     12 C         140.9266  141.5709  171.1179 C.3     1  UNL1        0.0742
     13 C         141.5498  140.6943  170.0722 C.ar    1  UNL1        0.1442
     14 C         142.5852  139.6359  170.3120 C.ar    1  UNL1        0.1349
     15 N         142.9223  139.0096  168.9912 N.ar    1  UNL1       -0.2070
     16 C         142.0950  139.6810  167.9353 C.ar    1  UNL1        0.2293
     17 O         141.2468  140.7222  168.6035 O.2     1  UNL1       -0.4389
     18 C         139.1995  138.4666  159.7020 C.3     1  UNL1        0.0730
     19 C         139.2654  139.5655  158.6831 C.3     1  UNL1        0.0294
     20 C         138.2170  140.6383  158.6680 C.3     1  UNL1        0.0666
     21 S         138.5718  142.0393  159.0692 S.3     1  UNL1       -0.0756
     22 C         138.8108  142.3683  160.5130 C.ar    1  UNL1        0.1932
     23 N         137.7797  142.8507  161.4898 N.ar    1  UNL1       -0.1221
     24 N         138.4545  143.0532  162.8140 N.ar    1  UNL1       -0.1277
     25 C         139.9027  142.6960  162.6556 C.ar    1  UNL1        0.1729
     26 N         140.1230  142.2727  161.2335 N.ar    1  UNL1       -0.2880
     27 C         141.4264  141.8312  160.6368 C.3     1  UNL1        0.1340
     28 C         140.9473  142.7521  163.7306 C.ar    1  UNL1        0.0654
     29 C         142.4123  142.4844  163.5514 C.ar    1  UNL1        0.0101
     30 C         143.0808  142.6527  164.8836 C.ar    1  UNL1        0.0076
     31 C         142.0289  143.0244  165.8863 C.ar    1  UNL1        0.0355
     32 S         140.7104  143.0859  165.1737 S.2     1  UNL1       -0.0833
@<TRIPOS>BOND
     1    12    13    1
     2    13    14   ar
     3    14    15   ar
     4    15    16   ar
     5    16     1    1
     6     1     2   ar
     7     2     3   ar
     8     3     4   ar
     9     4     5   ar
    10     5     6   ar
    11     5     7    1
    12     7     8    1
    13     8     9    1
    14     9    18    1
    15    18    19    1
    16    19    20    1
    17    20    21    1
    18    21    22    1
    19    22    23   ar
    20    23    24   ar
    21    24    25   ar
    22    25    28    1
    23    28    29   ar
    24    29    30   ar
    25    30    31   ar
    26    31    32   ar
    27    25    26   ar
    28    26    27    1
    29     9    10    1
    30    10    11    1
    31    16    17   ar
    32    17    13   ar
    33     6     1   ar
    34    26    22   ar
    35    11     4    1
    36    32    28   ar
@<TRIPOS>MOLECULE
*****
 32 36 0 0 0
SMALL
GASTEIGER

@<TRIPOS>ATOM
      1 C         139.7664  140.3984  166.0878 C.ar    1  UNL1        0.0532
      2 C         139.1854  139.0188  166.1826 C.ar    1  UNL1        0.0043
      3 C         138.8416  138.2623  164.9338 C.ar    1  UNL1       -0.0044
      4 C         139.0789  138.8855  163.5901 C.ar    1  UNL1       -0.0247
      5 C         139.6600  140.2650  163.4954 C.ar    1  UNL1       -0.0245
      6 C         140.0038  141.0215  164.7441 C.ar    1  UNL1        0.0001
      7 C         139.9743  141.0651  162.2660 C.3     1  UNL1        0.0433
      8 C         139.7850  140.6830  160.8278 C.3     1  UNL1        0.0768
      9 N         139.2348  139.4067  160.2639 N.3     1  UNL1       -0.2720
     10 C         138.7380  138.1970  160.9987 C.3     1  UNL1        0.0768
     11 C         138.6686  137.9651  162.4790 C.3     1  UNL1        0.0433
     12 C         140.7882  141.5554  171.1374 C.3     1  UNL1        0.0742
     13 C         140.5798  141.6866  169.6577 C.ar    1  UNL1        0.1442
     14 C         140.6984  142.9510  168.8594 C.ar    1  UNL1        0.1349
     15 N         140.4082  142.6223  167.4248 N.ar    1  UNL1       -0.2070
     16 C         140.1102  141.1549  167.3367 C.ar    1  UNL1        0.2293
     17 O         140.2163  140.5766  168.7167 O.2     1  UNL1       -0.4389
     18 C         139.1734  139.3297  158.7671 C.3     1  UNL1        0.0730
     19 C         139.9751  138.2940  158.0358 C.3     1  UNL1        0.0294
     20 C         141.4194  138.5483  157.7205 C.3     1  UNL1        0.0666
     21 S         142.4921  137.9259  158.5643 S.3     1  UNL1       -0.0756
     22 C         142.7152  138.4057  159.9678 C.ar    1  UNL1        0.1932
     23 N         142.2886  137.6981  161.2198 N.ar    1  UNL1       -0.1221
     24 N         142.7138  138.5324  162.3916 N.ar    1  UNL1       -0.1277
     25 C         143.4033  139.7555  161.8639 C.ar    1  UNL1        0.1729
     26 N         143.4042  139.6773  160.3659 N.ar    1  UNL1       -0.2880
     27 C         143.9910  140.6924  159.4303 C.3     1  UNL1        0.1340
     28 C         143.9891  140.8626  162.6892 C.ar    1  UNL1        0.0654
     29 C         145.2510  140.7876  163.4966 C.ar    1  UNL1        0.0101
     30 C         145.4576  142.1178  164.1585 C.ar    1  UNL1        0.0076
     31 C         144.3234  143.0149  163.7602 C.ar    1  UNL1        0.0355
     32 S         143.4157  142.2391  162.8521 S.2     1  UNL1       -0.0833
@<TRIPOS>BOND
     1    12    13    1
     2    13    14   ar
     3    14    15   ar
     4    15    16   ar
     5    16     1    1
     6     1     2   ar
     7     2     3   ar
     8     3     4   ar
     9     4     5   ar
    10     5     6   ar
    11     5     7    1
    12     7     8    1
    13     8     9    1
    14     9    18    1
    15    18    19    1
    16    19    20    1
    17    20    21    1
    18    21    22    1
    19    22    23   ar
    20    23    24   ar
    21    24    25   ar
    22    25    28    1
    23    28    29   ar
    24    29    30   ar
    25    30    31   ar
    26    31    32   ar
    27    25    26   ar
    28    26    27    1
    29     9    10    1
    30    10    11    1
    31    16    17   ar
    32    17    13   ar
    33     6     1   ar
    34    26    22   ar
    35    11     4    1
    36    32    28   ar
