@<TRIPOS>MOLECULE
*****
 28 32 0 0 0
SMALL
GASTEIGER

@<TRIPOS>ATOM
      1 C         141.6437  138.4299  160.3913 C.ar    1  UNL1        0.1383
      2 C         142.6846  138.0528  159.3793 C.ar    1  UNL1        0.0920
      3 C         142.2955  137.8424  157.9459 C.ar    1  UNL1        0.2290
      4 N         140.8656  138.0092  157.5247 N.ar    1  UNL1       -0.1892
      5 C         139.8247  138.3864  158.5368 C.ar    1  UNL1        0.2027
      6 N         140.2138  138.5967  159.9701 N.ar    1  UNL1       -0.2088
      7 C         141.3648  138.9140  164.3205 C.3     1  UNL1        0.1572
      8 C         140.9758  138.7037  162.8872 C.3     1  UNL1        0.1262
      9 N         142.0328  138.6402  161.8247 N.pl3   1  UNL1       -0.2877
     10 C         143.4787  138.7871  162.1956 C.3     1  UNL1        0.1243
     11 C         143.8677  138.9974  163.6289 C.3     1  UNL1        0.1639
     12 O         142.8107  139.0609  164.6913 O.3     1  UNL1       -0.3483
     13 C         138.1939  139.1044  167.5078 C.ar    1  UNL1       -0.0000
     14 C         138.0084  138.2103  166.3178 C.ar    1  UNL1       -0.0002
     15 C         139.0654  138.1469  165.2553 C.ar    1  UNL1       -0.0019
     16 C         140.3078  138.9775  165.3829 C.ar    1  UNL1        0.0062
     17 C         140.4933  139.8716  166.5729 C.ar    1  UNL1       -0.0019
     18 C         139.4363  139.9350  167.6353 C.ar    1  UNL1       -0.0002
     19 O         143.3364  137.4653  156.9339 O.3     1  UNL1       -0.4638
     20 C         143.5185  136.0280  156.5451 C.3     1  UNL1        0.1714
     21 C         143.3387  134.7105  157.2393 C.3     1  UNL1        0.0681
     22 C         143.7760  133.9954  155.9954 C.3     1  UNL1        0.1124
     23 C         143.9558  135.3129  155.3011 C.3     1  UNL1        0.0681
     24 N         143.9581  132.5582  155.6066 N.ar    1  UNL1       -0.2511
     25 C         143.0451  131.7614  154.7226 C.ar    1  UNL1        0.0966
     26 C         143.6079  130.3761  154.6032 C.ar    1  UNL1        0.0427
     27 C         144.8688  130.3167  155.4136 C.ar    1  UNL1        0.1217
     28 N         145.0852  131.6653  156.0337 N.ar    1  UNL1       -0.1677
@<TRIPOS>BOND
     1    13    14   ar
     2    14    15   ar
     3    15    16   ar
     4     7    16    1
     5     7     8    1
     6     8     9    1
     7     9     1    1
     8     1     2   ar
     9     2     3   ar
    10     3    19    1
    11    20    19    1
    12    20    21    1
    13    21    22    1
    14    22    24    1
    15    24    25   ar
    16    25    26   ar
    17    26    27   ar
    18    27    28   ar
    19    22    23    1
    20     3     4   ar
    21     4     5   ar
    22     5     6   ar
    23     9    10    1
    24    10    11    1
    25    11    12    1
    26    16    17   ar
    27    17    18   ar
    28    18    13   ar
    29    12     7    1
    30     6     1   ar
    31    23    20    1
    32    28    24   ar
@<TRIPOS>MOLECULE
*****
 28 32 0 0 0
SMALL
GASTEIGER

@<TRIPOS>ATOM
      1 C         142.4441  142.0931  158.6381 C.ar    1  UNL1        0.1383
      2 C         142.9063  141.0587  159.6210 C.ar    1  UNL1        0.0920
      3 C         143.8035  139.9441  159.1706 C.ar    1  UNL1        0.2290
      4 N         144.2384  139.8641  157.7372 N.ar    1  UNL1       -0.1892
      5 C         143.7761  140.8986  156.7543 C.ar    1  UNL1        0.2027
      6 N         142.8789  142.0131  157.2048 N.ar    1  UNL1       -0.2088
      7 C         139.9740  144.2473  160.8762 C.3     1  UNL1        0.1572
      8 C         140.8712  143.1328  160.4257 C.3     1  UNL1        0.1262
      9 N         141.5469  143.2077  159.0886 N.pl3   1  UNL1       -0.2877
     10 C         141.3254  144.3971  158.2020 C.3     1  UNL1        0.1243
     11 C         140.4282  145.5116  158.6524 C.3     1  UNL1        0.1639
     12 O         139.7525  145.4367  159.9895 O.3     1  UNL1       -0.3483
     13 C         137.9470  144.0225  164.8875 C.ar    1  UNL1       -0.0000
     14 C         137.4191  143.2214  163.7344 C.ar    1  UNL1       -0.0002
     15 C         138.0948  143.2963  162.3973 C.ar    1  UNL1       -0.0019
     16 C         139.2983  144.1724  162.2133 C.ar    1  UNL1        0.0062
     17 C         139.8262  144.9735  163.3663 C.ar    1  UNL1       -0.0019
     18 C         139.1505  144.8985  164.7034 C.ar    1  UNL1       -0.0002
     19 O         144.2658  138.9096  160.1535 O.3     1  UNL1       -0.4638
     20 C         143.9617  139.0731  161.6132 C.3     1  UNL1        0.1714
     21 C         144.4581  139.9732  162.7057 C.3     1  UNL1        0.0681
     22 C         143.5317  139.3044  163.6775 C.3     1  UNL1        0.1124
     23 C         143.0353  138.4043  162.5851 C.3     1  UNL1        0.0681
     24 N         143.2276  139.4679  165.1372 N.ar    1  UNL1       -0.2511
     25 C         143.3786  138.4130  166.1929 C.ar    1  UNL1        0.0966
     26 C         142.9635  139.0082  167.5057 C.ar    1  UNL1        0.0427
     27 C         142.5559  140.4309  167.2614 C.ar    1  UNL1        0.1217
     28 N         142.7192  140.7150  165.7976 N.ar    1  UNL1       -0.1677
@<TRIPOS>BOND
     1    13    14   ar
     2    14    15   ar
     3    15    16   ar
     4     7    16    1
     5     7     8    1
     6     8     9    1
     7     9     1    1
     8     1     2   ar
     9     2     3   ar
    10     3    19    1
    11    20    19    1
    12    20    21    1
    13    21    22    1
    14    22    24    1
    15    24    25   ar
    16    25    26   ar
    17    26    27   ar
    18    27    28   ar
    19    22    23    1
    20     3     4   ar
    21     4     5   ar
    22     5     6   ar
    23     9    10    1
    24    10    11    1
    25    11    12    1
    26    16    17   ar
    27    17    18   ar
    28    18    13   ar
    29    12     7    1
    30     6     1   ar
    31    23    20    1
    32    28    24   ar
@<TRIPOS>MOLECULE
*****
 28 32 0 0 0
SMALL
GASTEIGER

@<TRIPOS>ATOM
      1 C         139.6268  143.4075  162.7502 C.ar    1  UNL1        0.1383
      2 C         139.7891  142.7746  161.4000 C.ar    1  UNL1        0.0920
      3 C         139.8978  143.6353  160.1763 C.ar    1  UNL1        0.2290
      4 N         139.8442  145.1290  160.3029 N.ar    1  UNL1       -0.1892
      5 C         139.6819  145.7619  161.6532 C.ar    1  UNL1        0.2027
      6 N         139.5732  144.9012  162.8768 N.ar    1  UNL1       -0.2088
      7 C         140.2035  142.0231  166.4246 C.3     1  UNL1        0.1572
      8 C         140.3122  142.8838  165.2009 C.3     1  UNL1        0.1262
      9 N         139.5180  142.5467  163.9739 N.pl3   1  UNL1       -0.2877
     10 C         138.6152  141.3489  163.9704 C.3     1  UNL1        0.1243
     11 C         138.5065  140.4882  165.1941 C.3     1  UNL1        0.1639
     12 O         139.3006  140.8253  166.4211 O.3     1  UNL1       -0.3483
     13 C         142.5858  143.0345  170.1058 C.ar    1  UNL1       -0.0000
     14 C         141.1537  143.4671  169.9969 C.ar    1  UNL1       -0.0002
     15 C         140.3596  143.1300  168.7699 C.ar    1  UNL1       -0.0019
     16 C         140.9976  142.3603  167.6516 C.ar    1  UNL1        0.0062
     17 C         142.4297  141.9277  167.7605 C.ar    1  UNL1       -0.0019
     18 C         143.2238  142.2648  168.9875 C.ar    1  UNL1       -0.0002
     19 O         140.0601  143.0024  158.8261 O.3     1  UNL1       -0.4638
     20 C         138.8660  142.4416  158.1123 C.3     1  UNL1        0.1714
     21 C         138.1618  141.1171  158.1019 C.3     1  UNL1        0.0681
     22 C         137.1773  141.6485  157.1027 C.3     1  UNL1        0.1124
     23 C         137.8814  142.9729  157.1131 C.3     1  UNL1        0.0681
     24 N         135.9832  141.0877  156.3888 N.ar    1  UNL1       -0.2511
     25 C         135.5439  141.4359  154.9975 C.ar    1  UNL1        0.0966
     26 C         134.3079  140.6436  154.6897 C.ar    1  UNL1        0.0427
     27 C         133.9833  139.8058  155.8909 C.ar    1  UNL1        0.1217
     28 N         135.0187  140.0803  156.9409 N.ar    1  UNL1       -0.1677
@<TRIPOS>BOND
     1    13    14   ar
     2    14    15   ar
     3    15    16   ar
     4     7    16    1
     5     7     8    1
     6     8     9    1
     7     9     1    1
     8     1     2   ar
     9     2     3   ar
    10     3    19    1
    11    20    19    1
    12    20    21    1
    13    21    22    1
    14    22    24    1
    15    24    25   ar
    16    25    26   ar
    17    26    27   ar
    18    27    28   ar
    19    22    23    1
    20     3     4   ar
    21     4     5   ar
    22     5     6   ar
    23     9    10    1
    24    10    11    1
    25    11    12    1
    26    16    17   ar
    27    17    18   ar
    28    18    13   ar
    29    12     7    1
    30     6     1   ar
    31    23    20    1
    32    28    24   ar
@<TRIPOS>MOLECULE
*****
 28 32 0 0 0
SMALL
GASTEIGER

@<TRIPOS>ATOM
      1 C         139.6548  143.8247  162.6712 C.ar    1  UNL1        0.1383
      2 C         139.8911  143.3001  161.2860 C.ar    1  UNL1        0.0920
      3 C         139.9924  144.2515  160.1307 C.ar    1  UNL1        0.2290
      4 N         139.8574  145.7276  160.3607 N.ar    1  UNL1       -0.1892
      5 C         139.6211  146.2522  161.7460 C.ar    1  UNL1        0.2027
      6 N         139.5198  145.3008  162.9012 N.ar    1  UNL1       -0.2088
      7 C         140.2352  142.1782  166.2352 C.3     1  UNL1        0.1572
      8 C         140.3365  143.1296  165.0800 C.3     1  UNL1        0.1262
      9 N         139.5535  142.8733  163.8265 N.pl3   1  UNL1       -0.2877
     10 C         138.6692  141.6657  163.7282 C.3     1  UNL1        0.1243
     11 C         138.5679  140.7144  164.8835 C.3     1  UNL1        0.1639
     12 O         139.3509  140.9706  166.1370 O.3     1  UNL1       -0.3483
     13 C         142.5843  142.9469  169.9956 C.ar    1  UNL1       -0.0000
     14 C         143.2517  142.3146  168.8105 C.ar    1  UNL1       -0.0002
     15 C         142.4687  142.0584  167.5570 C.ar    1  UNL1       -0.0019
     16 C         141.0182  142.4345  167.4887 C.ar    1  UNL1        0.0062
     17 C         140.3508  143.0668  168.6738 C.ar    1  UNL1       -0.0019
     18 C         141.1338  143.3230  169.9273 C.ar    1  UNL1       -0.0002
     19 O         140.2287  143.7268  158.7455 O.3     1  UNL1       -0.4638
     20 C         140.2674  144.6724  157.5818 C.3     1  UNL1        0.1714
     21 C         139.4083  144.9039  156.3742 C.3     1  UNL1        0.0681
     22 C         140.3222  146.0097  155.9360 C.3     1  UNL1        0.1124
     23 C         141.1814  145.7782  157.1436 C.3     1  UNL1        0.0681
     24 N         140.3609  146.9553  154.7723 N.ar    1  UNL1       -0.2511
     25 C         139.6773  148.2883  154.6962 C.ar    1  UNL1        0.0966
     26 C         139.9839  148.8908  153.3572 C.ar    1  UNL1        0.0427
     27 C         140.8570  147.9302  152.6056 C.ar    1  UNL1        0.1217
     28 N         141.0900  146.7340  153.4802 N.ar    1  UNL1       -0.1677
@<TRIPOS>BOND
     1    13    14   ar
     2    14    15   ar
     3    15    16   ar
     4     7    16    1
     5     7     8    1
     6     8     9    1
     7     9     1    1
     8     1     2   ar
     9     2     3   ar
    10     3    19    1
    11    20    19    1
    12    20    21    1
    13    21    22    1
    14    22    24    1
    15    24    25   ar
    16    25    26   ar
    17    26    27   ar
    18    27    28   ar
    19    22    23    1
    20     3     4   ar
    21     4     5   ar
    22     5     6   ar
    23     9    10    1
    24    10    11    1
    25    11    12    1
    26    16    17   ar
    27    17    18   ar
    28    18    13   ar
    29    12     7    1
    30     6     1   ar
    31    23    20    1
    32    28    24   ar
@<TRIPOS>MOLECULE
*****
 28 32 0 0 0
SMALL
GASTEIGER

@<TRIPOS>ATOM
      1 C         141.2259  141.0796  167.7236 C.ar    1  UNL1        0.1383
      2 C         142.1790  141.8265  166.8384 C.ar    1  UNL1        0.0920
      3 C         143.3402  142.5625  167.4386 C.ar    1  UNL1        0.2290
      4 N         143.5481  142.5515  168.9241 N.ar    1  UNL1       -0.1892
      5 C         142.5949  141.8045  169.8094 C.ar    1  UNL1        0.2027
      6 N         141.4339  141.0686  169.2091 N.ar    1  UNL1       -0.2088
      7 C         138.7674  139.5099  165.0326 C.3     1  UNL1        0.1572
      8 C         139.9284  140.2459  165.6328 C.3     1  UNL1        0.1262
      9 N         140.0648  140.3436  167.1234 N.pl3   1  UNL1       -0.2877
     10 C         139.0401  139.7055  168.0137 C.3     1  UNL1        0.1243
     11 C         137.8790  138.9696  167.4135 C.3     1  UNL1        0.1639
     12 O         137.7427  138.8718  165.9229 O.3     1  UNL1       -0.3483
     13 C         138.3583  139.2166  160.5608 C.ar    1  UNL1       -0.0000
     14 C         139.1428  138.1819  161.3117 C.ar    1  UNL1       -0.0002
     15 C         139.2792  138.2797  162.8022 C.ar    1  UNL1       -0.0019
     16 C         138.6310  139.4122  163.5420 C.ar    1  UNL1        0.0062
     17 C         137.8465  140.4469  162.7911 C.ar    1  UNL1       -0.0019
     18 C         137.7101  140.3491  161.3005 C.ar    1  UNL1       -0.0002
     19 O         144.2933  143.3094  166.5534 O.3     1  UNL1       -0.4638
     20 C         144.1219  143.2688  165.0638 C.3     1  UNL1        0.1714
     21 C         144.3226  142.2295  164.0009 C.3     1  UNL1        0.0681
     22 C         143.8795  143.2115  162.9572 C.3     1  UNL1        0.1124
     23 C         143.6787  144.2507  164.0200 C.3     1  UNL1        0.0681
     24 N         143.7081  143.1709  161.4676 N.ar    1  UNL1       -0.2511
     25 C         144.5981  142.4529  160.4968 C.ar    1  UNL1        0.0966
     26 C         144.0566  142.6795  159.1164 C.ar    1  UNL1        0.0427
     27 C         142.8319  143.5375  159.2340 C.ar    1  UNL1        0.1217
     28 N         142.6165  143.8412  160.6871 N.ar    1  UNL1       -0.1677
@<TRIPOS>BOND
     1    13    14   ar
     2    14    15   ar
     3    15    16   ar
     4     7    16    1
     5     7     8    1
     6     8     9    1
     7     9     1    1
     8     1     2   ar
     9     2     3   ar
    10     3    19    1
    11    20    19    1
    12    20    21    1
    13    21    22    1
    14    22    24    1
    15    24    25   ar
    16    25    26   ar
    17    26    27   ar
    18    27    28   ar
    19    22    23    1
    20     3     4   ar
    21     4     5   ar
    22     5     6   ar
    23     9    10    1
    24    10    11    1
    25    11    12    1
    26    16    17   ar
    27    17    18   ar
    28    18    13   ar
    29    12     7    1
    30     6     1   ar
    31    23    20    1
    32    28    24   ar
@<TRIPOS>MOLECULE
*****
 28 32 0 0 0
SMALL
GASTEIGER

@<TRIPOS>ATOM
      1 C         141.2703  144.4336  162.7764 C.ar    1  UNL1        0.1383
      2 C         141.5043  143.8924  161.3971 C.ar    1  UNL1        0.0920
      3 C         140.8326  144.5303  160.2172 C.ar    1  UNL1        0.2290
      4 N         139.9270  145.7093  160.4166 N.ar    1  UNL1       -0.1892
      5 C         139.6930  146.2504  161.7959 C.ar    1  UNL1        0.2027
      6 N         140.3646  145.6126  162.9758 N.ar    1  UNL1       -0.2088
      7 C         141.7884  142.5254  166.2173 C.3     1  UNL1        0.1572
      8 C         141.1168  143.1632  165.0375 C.3     1  UNL1        0.1262
      9 N         141.9419  143.7958  163.9563 N.pl3   1  UNL1       -0.2877
     10 C         143.4386  143.7906  164.0549 C.3     1  UNL1        0.1243
     11 C         144.1102  143.1527  165.2348 C.3     1  UNL1        0.1639
     12 O         143.2851  142.5202  166.3160 O.3     1  UNL1       -0.3483
     13 C         139.3129  140.6276  169.4609 C.ar    1  UNL1       -0.0000
     14 C         139.3892  139.9899  168.1054 C.ar    1  UNL1       -0.0002
     15 C         140.2143  140.6225  167.0242 C.ar    1  UNL1       -0.0019
     16 C         140.9632  141.8928  167.2985 C.ar    1  UNL1        0.0062
     17 C         140.8870  142.5306  168.6540 C.ar    1  UNL1       -0.0019
     18 C         140.0619  141.8980  169.7352 C.ar    1  UNL1       -0.0002
     19 O         141.0666  143.9891  158.8380 O.3     1  UNL1       -0.4638
     20 C         140.9205  144.8869  157.6452 C.3     1  UNL1        0.1714
     21 C         141.7797  145.9263  156.9884 C.3     1  UNL1        0.0681
     22 C         140.7138  146.1565  155.9585 C.3     1  UNL1        0.1124
     23 C         139.8545  145.1172  156.6153 C.3     1  UNL1        0.0681
     24 N         140.5676  147.0543  154.7657 N.ar    1  UNL1       -0.2511
     25 C         139.7915  148.3370  154.7175 C.ar    1  UNL1        0.0966
     26 C         139.9161  148.9025  153.3338 C.ar    1  UNL1        0.0427
     27 C         140.7692  147.9692  152.5268 C.ar    1  UNL1        0.1217
     28 N         141.1718  146.8270  153.4118 N.ar    1  UNL1       -0.1677
@<TRIPOS>BOND
     1    13    14   ar
     2    14    15   ar
     3    15    16   ar
     4     7    16    1
     5     7     8    1
     6     8     9    1
     7     9     1    1
     8     1     2   ar
     9     2     3   ar
    10     3    19    1
    11    20    19    1
    12    20    21    1
    13    21    22    1
    14    22    24    1
    15    24    25   ar
    16    25    26   ar
    17    26    27   ar
    18    27    28   ar
    19    22    23    1
    20     3     4   ar
    21     4     5   ar
    22     5     6   ar
    23     9    10    1
    24    10    11    1
    25    11    12    1
    26    16    17   ar
    27    17    18   ar
    28    18    13   ar
    29    12     7    1
    30     6     1   ar
    31    23    20    1
    32    28    24   ar
@<TRIPOS>MOLECULE
*****
 28 32 0 0 0
SMALL
GASTEIGER

@<TRIPOS>ATOM
      1 C         142.8088  138.1530  158.3081 C.ar    1  UNL1        0.1383
      2 C         143.0424  137.7569  159.7358 C.ar    1  UNL1        0.0920
      3 C         143.5782  138.7596  160.7143 C.ar    1  UNL1        0.2290
      4 N         143.8805  140.1585  160.2650 N.ar    1  UNL1       -0.1892
      5 C         143.6469  140.5545  158.8372 C.ar    1  UNL1        0.2027
      6 N         143.1111  139.5518  157.8588 N.ar    1  UNL1       -0.2088
      7 C         142.4562  134.8482  156.1391 C.3     1  UNL1        0.1572
      8 C         142.9920  135.8509  157.1176 C.3     1  UNL1        0.1262
      9 N         142.2730  137.1502  157.3295 N.pl3   1  UNL1       -0.2877
     10 C         141.0183  137.4468  156.5630 C.3     1  UNL1        0.1243
     11 C         140.4825  136.4441  155.5845 C.3     1  UNL1        0.1639
     12 O         141.2015  135.1448  155.3726 O.3     1  UNL1       -0.3483
     13 C         144.6131  130.9504  155.5033 C.ar    1  UNL1       -0.0000
     14 C         144.8770  131.7609  156.7375 C.ar    1  UNL1       -0.0002
     15 C         144.1580  133.0602  156.9494 C.ar    1  UNL1       -0.0019
     16 C         143.1752  133.5489  155.9272 C.ar    1  UNL1        0.0062
     17 C         142.9113  132.7384  154.6929 C.ar    1  UNL1       -0.0019
     18 C         143.6303  131.4391  154.4810 C.ar    1  UNL1       -0.0002
     19 O         143.8117  138.3635  162.1421 O.3     1  UNL1       -0.4638
     20 C         142.7216  138.5396  163.1572 C.3     1  UNL1        0.1714
     21 C         141.7588  137.6213  163.8500 C.3     1  UNL1        0.0681
     22 C         141.1798  138.7887  164.5928 C.3     1  UNL1        0.1124
     23 C         142.1425  139.7071  163.9001 C.3     1  UNL1        0.0681
     24 N         140.0897  138.9648  165.6080 N.ar    1  UNL1       -0.2511
     25 C         138.6706  138.4995  165.4675 C.ar    1  UNL1        0.0966
     26 C         137.9310  138.8843  166.7145 C.ar    1  UNL1        0.0427
     27 C         138.8930  139.5874  167.6257 C.ar    1  UNL1        0.1217
     28 N         140.2271  139.6372  166.9418 N.ar    1  UNL1       -0.1677
@<TRIPOS>BOND
     1    13    14   ar
     2    14    15   ar
     3    15    16   ar
     4     7    16    1
     5     7     8    1
     6     8     9    1
     7     9     1    1
     8     1     2   ar
     9     2     3   ar
    10     3    19    1
    11    20    19    1
    12    20    21    1
    13    21    22    1
    14    22    24    1
    15    24    25   ar
    16    25    26   ar
    17    26    27   ar
    18    27    28   ar
    19    22    23    1
    20     3     4   ar
    21     4     5   ar
    22     5     6   ar
    23     9    10    1
    24    10    11    1
    25    11    12    1
    26    16    17   ar
    27    17    18   ar
    28    18    13   ar
    29    12     7    1
    30     6     1   ar
    31    23    20    1
    32    28    24   ar
@<TRIPOS>MOLECULE
*****
 28 32 0 0 0
SMALL
GASTEIGER

@<TRIPOS>ATOM
      1 C         140.4877  141.3043  158.6642 C.ar    1  UNL1        0.1383
      2 C         139.5777  140.7662  159.7283 C.ar    1  UNL1        0.0920
      3 C         138.2066  140.2773  159.3659 C.ar    1  UNL1        0.2290
      4 N         137.7456  140.3267  157.9393 N.ar    1  UNL1       -0.1892
      5 C         138.6557  140.8648  156.8752 C.ar    1  UNL1        0.2027
      6 N         140.0267  141.3536  157.2377 N.ar    1  UNL1       -0.2088
      7 C         143.5294  142.6977  160.7989 C.3     1  UNL1        0.1572
      8 C         142.1584  142.2089  160.4364 C.3     1  UNL1        0.1262
      9 N         141.8587  141.7931  159.0267 N.pl3   1  UNL1       -0.2877
     10 C         142.9301  141.8663  157.9794 C.3     1  UNL1        0.1243
     11 C         144.3011  142.3551  158.3419 C.3     1  UNL1        0.1639
     12 O         144.6007  142.7708  159.7516 O.3     1  UNL1       -0.3483
     13 C         144.4283  143.9448  165.0282 C.ar    1  UNL1       -0.0000
     14 C         143.7312  144.8934  164.0986 C.ar    1  UNL1       -0.0002
     15 C         143.4316  144.4777  162.6888 C.ar    1  UNL1       -0.0019
     16 C         143.8290  143.1134  162.2087 C.ar    1  UNL1        0.0062
     17 C         144.5261  142.1648  163.1382 C.ar    1  UNL1       -0.0019
     18 C         144.8257  142.5805  164.5480 C.ar    1  UNL1       -0.0002
     19 O         137.2967  139.7392  160.4299 O.3     1  UNL1       -0.4638
     20 C         137.7060  139.8067  161.8714 C.3     1  UNL1        0.1714
     21 C         137.5493  140.8132  162.9726 C.3     1  UNL1        0.0681
     22 C         138.2850  139.9021  163.9099 C.3     1  UNL1        0.1124
     23 C         138.4417  138.8956  162.8089 C.3     1  UNL1        0.0681
     24 N         138.6944  139.9695  165.3514 N.ar    1  UNL1       -0.2511
     25 C         138.1570  139.1158  166.4615 C.ar    1  UNL1        0.0966
     26 C         138.8435  139.5212  167.7321 C.ar    1  UNL1        0.0427
     27 C         139.8053  140.6255  167.4072 C.ar    1  UNL1        0.1217
     28 N         139.7131  140.9026  165.9359 N.ar    1  UNL1       -0.1677
@<TRIPOS>BOND
     1    13    14   ar
     2    14    15   ar
     3    15    16   ar
     4     7    16    1
     5     7     8    1
     6     8     9    1
     7     9     1    1
     8     1     2   ar
     9     2     3   ar
    10     3    19    1
    11    20    19    1
    12    20    21    1
    13    21    22    1
    14    22    24    1
    15    24    25   ar
    16    25    26   ar
    17    26    27   ar
    18    27    28   ar
    19    22    23    1
    20     3     4   ar
    21     4     5   ar
    22     5     6   ar
    23     9    10    1
    24    10    11    1
    25    11    12    1
    26    16    17   ar
    27    17    18   ar
    28    18    13   ar
    29    12     7    1
    30     6     1   ar
    31    23    20    1
    32    28    24   ar
@<TRIPOS>MOLECULE
*****
 28 32 0 0 0
SMALL
GASTEIGER

@<TRIPOS>ATOM
      1 C         141.4314  139.1793  160.0442 C.ar    1  UNL1        0.1383
      2 C         141.1181  138.3481  158.8355 C.ar    1  UNL1        0.0920
      3 C         142.1027  138.2646  157.7069 C.ar    1  UNL1        0.2290
      4 N         143.4005  139.0123  157.7870 N.ar    1  UNL1       -0.1892
      5 C         143.7138  139.8436  158.9958 C.ar    1  UNL1        0.2027
      6 N         142.7293  139.9270  160.1243 N.ar    1  UNL1       -0.2088
      7 C         139.2548  140.6459  163.0210 C.3     1  UNL1        0.1572
      8 C         140.2393  140.5624  161.8924 C.3     1  UNL1        0.1262
      9 N         140.4468  139.2627  161.1728 N.pl3   1  UNL1       -0.2877
     10 C         139.6698  138.0466  161.5817 C.3     1  UNL1        0.1243
     11 C         138.6852  138.1302  162.7102 C.3     1  UNL1        0.1639
     12 O         138.4777  139.4298  163.4299 O.3     1  UNL1       -0.3483
     13 C         138.6323  144.5448  165.1800 C.ar    1  UNL1       -0.0000
     14 C         137.7925  144.2075  163.9838 C.ar    1  UNL1       -0.0002
     15 C         138.0000  142.9078  163.2641 C.ar    1  UNL1       -0.0019
     16 C         139.0473  141.9455  163.7407 C.ar    1  UNL1        0.0062
     17 C         139.8870  142.2828  164.9369 C.ar    1  UNL1       -0.0019
     18 C         139.6796  143.5825  165.6565 C.ar    1  UNL1       -0.0002
     19 O         141.7894  137.4334  156.4982 O.3     1  UNL1       -0.4638
     20 C         142.2400  136.0042  156.4335 C.3     1  UNL1        0.1714
     21 C         141.8336  134.7989  155.6384 C.3     1  UNL1        0.0681
     22 C         142.8773  133.9830  156.3419 C.3     1  UNL1        0.1124
     23 C         143.2837  135.1882  157.1370 C.3     1  UNL1        0.0681
     24 N         143.3279  132.5537  156.2772 N.ar    1  UNL1       -0.2511
     25 C         144.7423  132.0817  156.1139 C.ar    1  UNL1        0.0966
     26 C         144.7318  130.5818  156.1002 C.ar    1  UNL1        0.0427
     27 C         143.3109  130.1268  156.2551 C.ar    1  UNL1        0.1217
     28 N         142.4432  131.3455  156.3645 N.ar    1  UNL1       -0.1677
@<TRIPOS>BOND
     1    13    14   ar
     2    14    15   ar
     3    15    16   ar
     4     7    16    1
     5     7     8    1
     6     8     9    1
     7     9     1    1
     8     1     2   ar
     9     2     3   ar
    10     3    19    1
    11    20    19    1
    12    20    21    1
    13    21    22    1
    14    22    24    1
    15    24    25   ar
    16    25    26   ar
    17    26    27   ar
    18    27    28   ar
    19    22    23    1
    20     3     4   ar
    21     4     5   ar
    22     5     6   ar
    23     9    10    1
    24    10    11    1
    25    11    12    1
    26    16    17   ar
    27    17    18   ar
    28    18    13   ar
    29    12     7    1
    30     6     1   ar
    31    23    20    1
    32    28    24   ar
