@<TRIPOS>MOLECULE
*****
 28 31 0 0 0
SMALL
GASTEIGER

@<TRIPOS>ATOM
      1 C         138.2339  141.6500  162.6101 C.2     1  UNL1        0.2525
      2 O         137.4005  142.8922  162.4992 O.2     1  UNL1       -0.2698
      3 N         138.5640  140.8561  161.3810 N.am    1  UNL1       -0.2660
      4 C         139.3824  139.5998  161.3362 C.3     1  UNL1        0.1236
      5 C         139.4578  139.1464  159.9084 C.ar    1  UNL1        0.0338
      6 C         140.0102  138.0897  158.9983 C.ar    1  UNL1        0.0990
      7 N         139.5798  138.4127  157.5980 N.ar    1  UNL1       -0.2287
      8 N         138.7614  139.6690  157.6428 N.ar    1  UNL1       -0.1680
      9 C         138.6860  140.1224  159.0707 C.ar    1  UNL1        0.0981
     10 C         138.1336  141.1791  159.9808 C.3     1  UNL1        0.1414
     11 C         139.9902  141.7988  164.5189 C.ar    1  UNL1        0.1427
     12 C         140.4935  141.3504  165.8589 C.ar    1  UNL1        0.0377
     13 C         139.7438  140.3050  166.6302 C.ar    1  UNL1        0.0134
     14 C         138.4908  139.7078  166.0615 C.ar    1  UNL1        0.0688
     15 C         137.9875  140.1562  164.7214 C.ar    1  UNL1        0.0178
     16 C         138.7372  141.2017  163.9501 C.ar    1  UNL1        0.0881
     17 C         137.7411  138.6623  166.8329 C.1     1  UNL1        0.1004
     18 N         136.9915  137.6168  167.6042 N.1     1  UNL1       -0.1908
     19 O         140.7399  142.8443  163.7476 O.3     1  UNL1       -0.4790
     20 C         141.6466  145.2789  163.7219 C.3     1  UNL1        0.0472
     21 C         140.5798  144.2939  164.0982 C.3     1  UNL1        0.1661
     22 C         139.3527  144.7584  164.8252 C.3     1  UNL1        0.0472
     23 C         139.9099  137.6188  156.3690 C.ar    1  UNL1        0.0828
     24 C         141.1154  136.7265  156.3538 C.ar    1  UNL1        0.0191
     25 C         141.4456  135.9326  155.1246 C.ar    1  UNL1        0.0015
     26 C         140.5700  136.0310  153.9107 C.ar    1  UNL1        0.0001
     27 C         139.3643  136.9234  153.9258 C.ar    1  UNL1        0.0015
     28 C         139.0343  137.7173  155.1549 C.ar    1  UNL1        0.0191
@<TRIPOS>BOND
     1    20    21    1
     2    21    22    1
     3    21    19    1
     4    19    11    1
     5    11    12   ar
     6    12    13   ar
     7    13    14   ar
     8    14    17    1
     9    17    18    3
    10    14    15   ar
    11    15    16   ar
    12    16     1    1
    13     1     2    2
    14     1     3   am
    15     3     4    1
    16     4     5    1
    17     5     6   ar
    18     6     7   ar
    19     7    23    1
    20    23    24   ar
    21    24    25   ar
    22    25    26   ar
    23    26    27   ar
    24    27    28   ar
    25     7     8   ar
    26     8     9   ar
    27     9    10    1
    28    16    11   ar
    29    10     3    1
    30     9     5   ar
    31    28    23   ar
@<TRIPOS>MOLECULE
*****
 28 31 0 0 0
SMALL
GASTEIGER

@<TRIPOS>ATOM
      1 C         142.8575  140.3175  165.6120 C.2     1  UNL1        0.2525
      2 O         143.8127  139.1610  165.5994 O.2     1  UNL1       -0.2698
      3 N         142.6149  141.1036  164.3578 N.am    1  UNL1       -0.2660
      4 C         141.6933  142.2788  164.2182 C.3     1  UNL1        0.1236
      5 C         141.7601  142.7539  162.7970 C.ar    1  UNL1        0.0338
      6 C         141.2318  143.7739  161.8324 C.ar    1  UNL1        0.0990
      7 N         141.8681  143.5228  160.4974 N.ar    1  UNL1       -0.2287
      8 N         142.7898  142.3475  160.6371 N.ar    1  UNL1       -0.1680
      9 C         142.7229  141.8724  162.0582 C.ar    1  UNL1        0.0981
     10 C         143.2512  140.8524  163.0229 C.3     1  UNL1        0.1414
     11 C         140.7922  140.1113  167.1748 C.ar    1  UNL1        0.1427
     12 C         140.0797  140.4818  168.4417 C.ar    1  UNL1        0.0377
     13 C         140.7200  141.4288  169.4129 C.ar    1  UNL1        0.0134
     14 C         142.0728  142.0054  169.1171 C.ar    1  UNL1        0.0688
     15 C         142.7853  141.6349  167.8501 C.ar    1  UNL1        0.0178
     16 C         142.1450  140.6879  166.8789 C.ar    1  UNL1        0.0881
     17 C         142.7131  142.9524  170.0883 C.1     1  UNL1        0.1004
     18 N         143.3534  143.8994  171.0595 N.1     1  UNL1       -0.1908
     19 O         140.1519  139.1643  166.2036 O.3     1  UNL1       -0.4790
     20 C         138.1334  140.1994  164.9369 C.3     1  UNL1        0.0472
     21 C         138.6751  139.2349  165.9499 C.3     1  UNL1        0.1661
     22 C         137.7402  138.3410  166.7094 C.3     1  UNL1        0.0472
     23 C         141.6255  144.3088  159.2432 C.ar    1  UNL1        0.0828
     24 C         140.4663  145.2575  159.1650 C.ar    1  UNL1        0.0191
     25 C         140.2236  146.0436  157.9107 C.ar    1  UNL1        0.0015
     26 C         141.1402  145.8810  156.7346 C.ar    1  UNL1        0.0001
     27 C         142.2996  144.9322  156.8128 C.ar    1  UNL1        0.0015
     28 C         142.5422  144.1462  158.0670 C.ar    1  UNL1        0.0191
@<TRIPOS>BOND
     1    20    21    1
     2    21    22    1
     3    21    19    1
     4    19    11    1
     5    11    12   ar
     6    12    13   ar
     7    13    14   ar
     8    14    17    1
     9    17    18    3
    10    14    15   ar
    11    15    16   ar
    12    16     1    1
    13     1     2    2
    14     1     3   am
    15     3     4    1
    16     4     5    1
    17     5     6   ar
    18     6     7   ar
    19     7    23    1
    20    23    24   ar
    21    24    25   ar
    22    25    26   ar
    23    26    27   ar
    24    27    28   ar
    25     7     8   ar
    26     8     9   ar
    27     9    10    1
    28    16    11   ar
    29    10     3    1
    30     9     5   ar
    31    28    23   ar
@<TRIPOS>MOLECULE
*****
 28 31 0 0 0
SMALL
GASTEIGER

@<TRIPOS>ATOM
      1 C         142.6996  142.5993  165.5777 C.2     1  UNL1        0.2525
      2 O         144.0994  142.9540  165.9833 O.2     1  UNL1       -0.2698
      3 N         142.1990  142.9649  164.2118 N.am    1  UNL1       -0.2660
      4 C         140.8308  142.6776  163.6681 C.3     1  UNL1        0.1236
      5 C         140.7650  143.2171  162.2700 C.ar    1  UNL1        0.0338
      6 C         139.8788  143.3730  161.0699 C.ar    1  UNL1        0.0990
      7 N         140.6585  144.0901  160.0078 N.ar    1  UNL1       -0.2287
      8 N         142.0267  144.3773  160.5516 N.ar    1  UNL1       -0.1680
      9 C         142.0925  143.8378  161.9497 C.ar    1  UNL1        0.0981
     10 C         142.9788  143.6819  163.1498 C.3     1  UNL1        0.1414
     11 C         141.4329  140.4458  166.2908 C.ar    1  UNL1        0.1427
     12 C         140.5336  139.7255  167.2512 C.ar    1  UNL1        0.0377
     13 C         140.0016  140.4384  168.4590 C.ar    1  UNL1        0.0134
     14 C         140.3688  141.8715  168.7064 C.ar    1  UNL1        0.0688
     15 C         141.2682  142.5918  167.7459 C.ar    1  UNL1        0.0178
     16 C         141.8002  141.8789  166.5381 C.ar    1  UNL1        0.0881
     17 C         139.8368  142.5843  169.9142 C.1     1  UNL1        0.1004
     18 N         139.3047  143.2972  171.1220 N.1     1  UNL1       -0.1908
     19 O         141.9650  139.7329  165.0830 O.3     1  UNL1       -0.4790
     20 C         144.2852  139.2705  164.0094 C.3     1  UNL1        0.0472
     21 C         143.3117  139.0743  165.1335 C.3     1  UNL1        0.1661
     22 C         143.6847  138.2194  166.3082 C.3     1  UNL1        0.0472
     23 C         140.1580  144.4557  158.6420 C.ar    1  UNL1        0.0828
     24 C         139.4242  143.4414  157.8157 C.ar    1  UNL1        0.0191
     25 C         138.9236  143.8069  156.4498 C.ar    1  UNL1        0.0015
     26 C         139.1569  145.1869  155.9101 C.ar    1  UNL1        0.0001
     27 C         139.8907  146.2013  156.7363 C.ar    1  UNL1        0.0015
     28 C         140.3912  145.8357  158.1022 C.ar    1  UNL1        0.0191
@<TRIPOS>BOND
     1    20    21    1
     2    21    22    1
     3    21    19    1
     4    19    11    1
     5    11    12   ar
     6    12    13   ar
     7    13    14   ar
     8    14    17    1
     9    17    18    3
    10    14    15   ar
    11    15    16   ar
    12    16     1    1
    13     1     2    2
    14     1     3   am
    15     3     4    1
    16     4     5    1
    17     5     6   ar
    18     6     7   ar
    19     7    23    1
    20    23    24   ar
    21    24    25   ar
    22    25    26   ar
    23    26    27   ar
    24    27    28   ar
    25     7     8   ar
    26     8     9   ar
    27     9    10    1
    28    16    11   ar
    29    10     3    1
    30     9     5   ar
    31    28    23   ar
@<TRIPOS>MOLECULE
*****
 28 31 0 0 0
SMALL
GASTEIGER

@<TRIPOS>ATOM
      1 C         138.4997  141.3157  162.3214 C.2     1  UNL1        0.2525
      2 O         137.0427  141.6697  162.2772 O.2     1  UNL1       -0.2698
      3 N         139.1035  140.4863  161.2270 N.am    1  UNL1       -0.2660
      4 C         140.5374  140.0555  161.1362 C.3     1  UNL1        0.1236
      5 C         140.6995  139.2451  159.8844 C.ar    1  UNL1        0.0338
      6 C         141.6858  138.4780  159.0546 C.ar    1  UNL1        0.0990
      7 N         140.9617  137.9338  157.8589 N.ar    1  UNL1       -0.2287
      8 N         139.5277  138.3646  157.9498 N.ar    1  UNL1       -0.1680
      9 C         139.3657  139.1750  159.2016 C.ar    1  UNL1        0.0981
     10 C         138.3793  139.9422  160.0314 C.3     1  UNL1        0.1414
     11 C         139.1098  141.2732  164.8465 C.ar    1  UNL1        0.1427
     12 C         139.9629  141.7486  165.9849 C.ar    1  UNL1        0.0377
     13 C         141.0592  142.7419  165.7368 C.ar    1  UNL1        0.0134
     14 C         141.3024  143.2598  164.3502 C.ar    1  UNL1        0.0688
     15 C         140.4491  142.7843  163.2117 C.ar    1  UNL1        0.0178
     16 C         139.3528  141.7911  163.4598 C.ar    1  UNL1        0.0881
     17 C         142.3987  144.2530  164.1021 C.1     1  UNL1        0.1004
     18 N         143.4950  145.2463  163.8539 N.1     1  UNL1       -0.1908
     19 O         138.0135  140.2800  165.0946 O.3     1  UNL1       -0.4790
     20 C         137.7245  138.5287  166.9919 C.3     1  UNL1        0.0472
     21 C         138.3356  138.9392  165.6850 C.3     1  UNL1        0.1661
     22 C         139.2690  138.0090  164.9684 C.3     1  UNL1        0.0472
     23 C         141.5655  137.1044  156.7647 C.ar    1  UNL1        0.0828
     24 C         143.0154  136.7250  156.8242 C.ar    1  UNL1        0.0191
     25 C         143.6193  135.8956  155.7298 C.ar    1  UNL1        0.0015
     26 C         142.7731  135.4457  154.5759 C.ar    1  UNL1        0.0001
     27 C         141.3230  135.8251  154.5164 C.ar    1  UNL1        0.0015
     28 C         140.7192  136.6545  155.6107 C.ar    1  UNL1        0.0191
@<TRIPOS>BOND
     1    20    21    1
     2    21    22    1
     3    21    19    1
     4    19    11    1
     5    11    12   ar
     6    12    13   ar
     7    13    14   ar
     8    14    17    1
     9    17    18    3
    10    14    15   ar
    11    15    16   ar
    12    16     1    1
    13     1     2    2
    14     1     3   am
    15     3     4    1
    16     4     5    1
    17     5     6   ar
    18     6     7   ar
    19     7    23    1
    20    23    24   ar
    21    24    25   ar
    22    25    26   ar
    23    26    27   ar
    24    27    28   ar
    25     7     8   ar
    26     8     9   ar
    27     9    10    1
    28    16    11   ar
    29    10     3    1
    30     9     5   ar
    31    28    23   ar
@<TRIPOS>MOLECULE
*****
 28 31 0 0 0
SMALL
GASTEIGER

@<TRIPOS>ATOM
      1 C         139.4847  140.0849  167.0067 C.2     1  UNL1        0.2525
      2 O         138.7181  138.9641  167.6440 O.2     1  UNL1       -0.2698
      3 N         139.3059  140.3810  165.5471 N.am    1  UNL1       -0.2660
      4 C         140.0005  141.4637  164.7756 C.3     1  UNL1        0.1236
      5 C         139.5250  141.3981  163.3544 C.ar    1  UNL1        0.0338
      6 C         139.6604  142.0268  161.9993 C.ar    1  UNL1        0.0990
      7 N         138.7558  141.2920  161.0549 N.ar    1  UNL1       -0.2287
      8 N         138.0613  140.2092  161.8265 N.ar    1  UNL1       -0.1680
      9 C         138.5367  140.2748  163.2476 C.ar    1  UNL1        0.0981
     10 C         138.4013  139.6462  164.6028 C.3     1  UNL1        0.1414
     11 C         141.8604  140.4840  167.9798 C.ar    1  UNL1        0.1427
     12 C         142.8056  141.3089  168.8021 C.ar    1  UNL1        0.0377
     13 C         142.3204  142.5593  169.4736 C.ar    1  UNL1        0.0134
     14 C         140.8900  142.9851  169.3228 C.ar    1  UNL1        0.0688
     15 C         139.9448  142.1602  168.5005 C.ar    1  UNL1        0.0178
     16 C         140.4299  140.9097  167.8290 C.ar    1  UNL1        0.0881
     17 C         140.4049  144.2355  169.9943 C.1     1  UNL1        0.1004
     18 N         139.9198  145.4860  170.6658 N.1     1  UNL1       -0.1908
     19 O         142.3455  139.2336  167.3083 O.3     1  UNL1       -0.4790
     20 C         143.4475  140.3982  165.2640 C.3     1  UNL1        0.0472
     21 C         142.6795  139.2487  165.8460 C.3     1  UNL1        0.1661
     22 C         142.2455  138.1143  164.9659 C.3     1  UNL1        0.0472
     23 C         138.5771  141.5880  159.5954 C.ar    1  UNL1        0.0828
     24 C         137.8936  140.5919  158.7062 C.ar    1  UNL1        0.0191
     25 C         137.7148  140.8879  157.2466 C.ar    1  UNL1        0.0015
     26 C         138.2195  142.1801  156.6761 C.ar    1  UNL1        0.0001
     27 C         138.9031  143.1763  157.5653 C.ar    1  UNL1        0.0015
     28 C         139.0818  142.8803  159.0248 C.ar    1  UNL1        0.0191
@<TRIPOS>BOND
     1    20    21    1
     2    21    22    1
     3    21    19    1
     4    19    11    1
     5    11    12   ar
     6    12    13   ar
     7    13    14   ar
     8    14    17    1
     9    17    18    3
    10    14    15   ar
    11    15    16   ar
    12    16     1    1
    13     1     2    2
    14     1     3   am
    15     3     4    1
    16     4     5    1
    17     5     6   ar
    18     6     7   ar
    19     7    23    1
    20    23    24   ar
    21    24    25   ar
    22    25    26   ar
    23    26    27   ar
    24    27    28   ar
    25     7     8   ar
    26     8     9   ar
    27     9    10    1
    28    16    11   ar
    29    10     3    1
    30     9     5   ar
    31    28    23   ar
@<TRIPOS>MOLECULE
*****
 28 31 0 0 0
SMALL
GASTEIGER

@<TRIPOS>ATOM
      1 C         144.5667  141.6763  163.5618 C.2     1  UNL1        0.2525
      2 O         146.0637  141.7593  163.5163 O.2     1  UNL1       -0.2698
      3 N         143.7497  142.2416  162.4380 N.am    1  UNL1       -0.2660
      4 C         142.2527  142.2323  162.3449 C.3     1  UNL1        0.1236
      5 C         141.8641  142.9003  161.0593 C.ar    1  UNL1        0.0338
      6 C         140.6987  143.3075  160.2072 C.ar    1  UNL1        0.0990
      7 N         141.2353  143.9813  158.9792 N.ar    1  UNL1       -0.2287
      8 N         142.7324  143.9906  159.0724 N.ar    1  UNL1       -0.1680
      9 C         143.1210  143.3226  160.3579 C.ar    1  UNL1        0.0981
     10 C         144.2864  142.9154  161.2100 C.3     1  UNL1        0.1414
     11 C         143.7206  139.5377  164.7705 C.ar    1  UNL1        0.1427
     12 C         143.0406  138.8896  165.9399 C.ar    1  UNL1        0.0377
     13 C         142.5267  139.7315  167.0699 C.ar    1  UNL1        0.0134
     14 C         142.6928  141.2218  167.0306 C.ar    1  UNL1        0.0688
     15 C         143.3728  141.8700  165.8612 C.ar    1  UNL1        0.0178
     16 C         143.8867  141.0280  164.7311 C.ar    1  UNL1        0.0881
     17 C         142.1789  142.0638  168.1606 C.1     1  UNL1        0.1004
     18 N         141.6650  142.9058  169.2906 N.1     1  UNL1       -0.1908
     19 O         144.2345  138.6958  163.6405 O.3     1  UNL1       -0.4790
     20 C         142.0138  137.9098  162.5448 C.3     1  UNL1        0.0472
     21 C         143.3921  138.4875  162.4170 C.3     1  UNL1        0.1661
     22 C         143.9281  138.8570  161.0657 C.3     1  UNL1        0.0472
     23 C         140.4184  144.5466  157.8554 C.ar    1  UNL1        0.0828
     24 C         140.4708  146.0152  157.5549 C.ar    1  UNL1        0.0191
     25 C         139.6538  146.5806  156.4311 C.ar    1  UNL1        0.0015
     26 C         138.7844  145.6772  155.6077 C.ar    1  UNL1        0.0001
     27 C         138.7319  144.2084  155.9082 C.ar    1  UNL1        0.0015
     28 C         139.5489  143.6432  157.0320 C.ar    1  UNL1        0.0191
@<TRIPOS>BOND
     1    20    21    1
     2    21    22    1
     3    21    19    1
     4    19    11    1
     5    11    12   ar
     6    12    13   ar
     7    13    14   ar
     8    14    17    1
     9    17    18    3
    10    14    15   ar
    11    15    16   ar
    12    16     1    1
    13     1     2    2
    14     1     3   am
    15     3     4    1
    16     4     5    1
    17     5     6   ar
    18     6     7   ar
    19     7    23    1
    20    23    24   ar
    21    24    25   ar
    22    25    26   ar
    23    26    27   ar
    24    27    28   ar
    25     7     8   ar
    26     8     9   ar
    27     9    10    1
    28    16    11   ar
    29    10     3    1
    30     9     5   ar
    31    28    23   ar
@<TRIPOS>MOLECULE
*****
 28 31 0 0 0
SMALL
GASTEIGER

@<TRIPOS>ATOM
      1 C         139.4648  139.4548  165.4610 C.2     1  UNL1        0.2525
      2 O         138.5380  138.2784  165.5443 O.2     1  UNL1       -0.2698
      3 N         139.5129  140.2849  164.2126 N.am    1  UNL1       -0.2660
      4 C         140.3845  141.4840  163.9841 C.3     1  UNL1        0.1236
      5 C         140.1080  142.0017  162.6037 C.ar    1  UNL1        0.0338
      6 C         140.4759  143.0628  161.6093 C.ar    1  UNL1        0.0990
      7 N         139.6607  142.8395  160.3701 N.ar    1  UNL1       -0.2287
      8 N         138.7890  141.6403  160.5986 N.ar    1  UNL1       -0.1680
      9 C         139.0655  141.1226  161.9790 C.ar    1  UNL1        0.0981
     10 C         138.6976  140.0615  162.9734 C.3     1  UNL1        0.1414
     11 C         141.7321  139.2397  166.7115 C.ar    1  UNL1        0.1427
     12 C         142.6108  139.5861  167.8767 C.ar    1  UNL1        0.0377
     13 C         142.1013  140.4939  168.9567 C.ar    1  UNL1        0.0134
     14 C         140.7129  141.0553  168.8714 C.ar    1  UNL1        0.0688
     15 C         139.8342  140.7089  167.7062 C.ar    1  UNL1        0.0178
     16 C         140.3437  139.8011  166.6262 C.ar    1  UNL1        0.0881
     17 C         140.2034  141.9631  169.9514 C.1     1  UNL1        0.1004
     18 N         139.6939  142.8709  171.0313 N.1     1  UNL1       -0.1908
     19 O         142.2416  138.3319  165.6316 O.3     1  UNL1       -0.4790
     20 C         144.1508  139.8202  164.6882 C.3     1  UNL1        0.0472
     21 C         142.9859  138.9029  164.4611 C.3     1  UNL1        0.1661
     22 C         142.5653  138.5564  163.0636 C.3     1  UNL1        0.0472
     23 C         139.7087  143.6695  159.1217 C.ar    1  UNL1        0.0828
     24 C         139.1585  143.1245  157.8371 C.ar    1  UNL1        0.0191
     25 C         139.2065  143.9545  156.5885 C.ar    1  UNL1        0.0015
     26 C         139.8047  145.3296  156.6246 C.ar    1  UNL1        0.0001
     27 C         140.3549  145.8746  157.9093 C.ar    1  UNL1        0.0015
     28 C         140.3069  145.0446  159.1578 C.ar    1  UNL1        0.0191
@<TRIPOS>BOND
     1    20    21    1
     2    21    22    1
     3    21    19    1
     4    19    11    1
     5    11    12   ar
     6    12    13   ar
     7    13    14   ar
     8    14    17    1
     9    17    18    3
    10    14    15   ar
    11    15    16   ar
    12    16     1    1
    13     1     2    2
    14     1     3   am
    15     3     4    1
    16     4     5    1
    17     5     6   ar
    18     6     7   ar
    19     7    23    1
    20    23    24   ar
    21    24    25   ar
    22    25    26   ar
    23    26    27   ar
    24    27    28   ar
    25     7     8   ar
    26     8     9   ar
    27     9    10    1
    28    16    11   ar
    29    10     3    1
    30     9     5   ar
    31    28    23   ar
@<TRIPOS>MOLECULE
*****
 28 31 0 0 0
SMALL
GASTEIGER

@<TRIPOS>ATOM
      1 C         139.0637  139.6107  165.7499 C.2     1  UNL1        0.2525
      2 O         137.8000  139.0255  166.3072 O.2     1  UNL1       -0.2698
      3 N         139.4409  139.3570  164.3204 N.am    1  UNL1       -0.2660
      4 C         140.6670  139.8731  163.6272 C.3     1  UNL1        0.1236
      5 C         140.6421  139.3778  162.2116 C.ar    1  UNL1        0.0338
      6 C         141.3845  139.3906  160.9082 C.ar    1  UNL1        0.0990
      7 N         140.6019  138.5764  159.9209 N.ar    1  UNL1       -0.2287
      8 N         139.3758  138.0604  160.6142 N.ar    1  UNL1       -0.1680
      9 C         139.4007  138.5557  162.0299 C.ar    1  UNL1        0.0981
     10 C         138.6583  138.5428  163.3332 C.3     1  UNL1        0.1414
     11 C         139.9882  141.9381  166.4417 C.ar    1  UNL1        0.1427
     12 C         140.8746  142.7768  167.3139 C.ar    1  UNL1        0.0377
     13 C         141.7232  142.1270  168.3663 C.ar    1  UNL1        0.0134
     14 C         141.6852  140.6383  168.5467 C.ar    1  UNL1        0.0688
     15 C         140.7987  139.7996  167.6745 C.ar    1  UNL1        0.0178
     16 C         139.9502  140.4495  166.6220 C.ar    1  UNL1        0.0881
     17 C         142.5338  139.9885  169.5991 C.1     1  UNL1        0.1004
     18 N         143.3823  139.3386  170.6516 N.1     1  UNL1       -0.1908
     19 O         139.1396  142.5880  165.3893 O.3     1  UNL1       -0.4790
     20 C         138.4067  145.0576  165.7272 C.3     1  UNL1        0.0472
     21 C         139.3095  144.0468  165.0842 C.3     1  UNL1        0.1661
     22 C         140.3820  144.4947  164.1361 C.3     1  UNL1        0.0472
     23 C         140.9791  138.3228  158.4916 C.ar    1  UNL1        0.0828
     24 C         139.9226  137.9619  157.4898 C.ar    1  UNL1        0.0191
     25 C         140.2997  137.7082  156.0603 C.ar    1  UNL1        0.0015
     26 C         141.7335  137.8154  155.6326 C.ar    1  UNL1        0.0001
     27 C         142.7900  138.1764  156.6344 C.ar    1  UNL1        0.0015
     28 C         142.4128  138.4300  158.0638 C.ar    1  UNL1        0.0191
@<TRIPOS>BOND
     1    20    21    1
     2    21    22    1
     3    21    19    1
     4    19    11    1
     5    11    12   ar
     6    12    13   ar
     7    13    14   ar
     8    14    17    1
     9    17    18    3
    10    14    15   ar
    11    15    16   ar
    12    16     1    1
    13     1     2    2
    14     1     3   am
    15     3     4    1
    16     4     5    1
    17     5     6   ar
    18     6     7   ar
    19     7    23    1
    20    23    24   ar
    21    24    25   ar
    22    25    26   ar
    23    26    27   ar
    24    27    28   ar
    25     7     8   ar
    26     8     9   ar
    27     9    10    1
    28    16    11   ar
    29    10     3    1
    30     9     5   ar
    31    28    23   ar
@<TRIPOS>MOLECULE
*****
 28 31 0 0 0
SMALL
GASTEIGER

@<TRIPOS>ATOM
      1 C         140.4238  138.3063  162.5702 C.2     1  UNL1        0.2525
      2 O         141.3209  137.1092  162.4599 O.2     1  UNL1       -0.2698
      3 N         139.8128  138.9018  161.3365 N.am    1  UNL1       -0.2660
      4 C         138.9010  140.0920  161.2906 C.3     1  UNL1        0.1236
      5 C         138.5309  140.3374  159.8578 C.ar    1  UNL1        0.0338
      6 C         137.7387  141.2247  158.9440 C.ar    1  UNL1        0.0990
      7 N         137.9322  140.7346  157.5395 N.ar    1  UNL1       -0.2287
      8 N         138.8440  139.5444  157.5854 N.ar    1  UNL1       -0.1680
      9 C         139.2140  139.2989  159.0182 C.ar    1  UNL1        0.0981
     10 C         140.0063  138.4117  159.9321 C.3     1  UNL1        0.1414
     11 C         140.9324  140.0866  164.3928 C.ar    1  UNL1        0.1427
     12 C         140.6463  140.6881  165.7368 C.ar    1  UNL1        0.0377
     13 C         139.5655  140.1109  166.6022 C.ar    1  UNL1        0.0134
     14 C         138.7709  138.9322  166.1235 C.ar    1  UNL1        0.0688
     15 C         139.0570  138.3307  164.7795 C.ar    1  UNL1        0.0178
     16 C         140.1378  138.9078  163.9141 C.ar    1  UNL1        0.0881
     17 C         137.6901  138.3550  166.9889 C.1     1  UNL1        0.1004
     18 N         136.6094  137.7778  167.8543 N.1     1  UNL1       -0.1908
     19 O         142.0131  140.6638  163.5275 O.3     1  UNL1       -0.4790
     20 C         144.1262  141.7015  164.6267 C.3     1  UNL1        0.0472
     21 C         143.4494  140.5495  163.9448 C.3     1  UNL1        0.1661
     22 C         144.2086  139.2832  163.6804 C.3     1  UNL1        0.0472
     23 C         137.3212  141.3300  156.3059 C.ar    1  UNL1        0.0828
     24 C         136.7901  140.4356  155.2252 C.ar    1  UNL1        0.0191
     25 C         136.1791  141.0310  153.9914 C.ar    1  UNL1        0.0015
     26 C         136.0991  142.5210  153.8384 C.ar    1  UNL1        0.0001
     27 C         136.6301  143.4156  154.9192 C.ar    1  UNL1        0.0015
     28 C         137.2411  142.8201  156.1528 C.ar    1  UNL1        0.0191
@<TRIPOS>BOND
     1    20    21    1
     2    21    22    1
     3    21    19    1
     4    19    11    1
     5    11    12   ar
     6    12    13   ar
     7    13    14   ar
     8    14    17    1
     9    17    18    3
    10    14    15   ar
    11    15    16   ar
    12    16     1    1
    13     1     2    2
    14     1     3   am
    15     3     4    1
    16     4     5    1
    17     5     6   ar
    18     6     7   ar
    19     7    23    1
    20    23    24   ar
    21    24    25   ar
    22    25    26   ar
    23    26    27   ar
    24    27    28   ar
    25     7     8   ar
    26     8     9   ar
    27     9    10    1
    28    16    11   ar
    29    10     3    1
    30     9     5   ar
    31    28    23   ar
