@<TRIPOS>MOLECULE
*****
 29 33 0 0 0
SMALL
GASTEIGER

@<TRIPOS>ATOM
      1 C         141.2494  139.0568  165.0104 C.ar    1  UNL1        0.0681
      2 C         141.8034  139.8147  163.8405 C.ar    1  UNL1        0.0208
      3 C         141.5226  139.3473  162.4431 C.ar    1  UNL1        0.0384
      4 C         140.6878  138.1221  162.2156 C.ar    1  UNL1        0.1385
      5 C         140.1337  137.3642  163.3855 C.ar    1  UNL1        0.0384
      6 C         140.4145  137.8316  164.7829 C.ar    1  UNL1        0.0208
      7 C         143.7065  138.1057  166.4448 C.3     1  UNL1        0.0723
      8 C         142.7588  139.0487  167.1250 C.ar    1  UNL1        0.1269
      9 N         143.0396  139.5160  168.5224 N.ar    1  UNL1       -0.2303
     10 C         142.0918  140.4590  169.2026 C.ar    1  UNL1        0.1049
     11 C         142.3727  140.9264  170.5999 C.ar    1  UNL1        0.0224
     12 C         141.4249  141.8694  171.2800 C.ar    1  UNL1        0.0222
     13 C         140.1964  142.3449  170.5628 C.ar    1  UNL1        0.0991
     14 N         139.9155  141.8775  169.1655 N.ar    1  UNL1       -0.2375
     15 C         140.8633  140.9346  168.4853 C.ar    1  UNL1        0.1551
     16 C         140.5824  140.4672  167.0879 C.ar    1  UNL1        0.2847
     17 O         139.3539  140.9427  166.3707 O.2     1  UNL1       -0.2649
     18 N         141.5302  139.5242  166.4078 N.ar    1  UNL1       -0.2613
     19 O         140.4070  137.6546  160.8182 O.3     1  UNL1       -0.4791
     20 C         139.6452  138.5345  159.8719 C.3     1  UNL1        0.1687
     21 C         140.0061  138.5599  158.4161 C.3     1  UNL1        0.0609
     22 C         139.2443  139.4398  157.4698 C.3     1  UNL1        0.0758
     23 N         138.1217  140.2944  157.9793 N.3     1  UNL1       -0.2737
     24 C         137.7608  140.2689  159.4350 C.3     1  UNL1        0.0758
     25 C         138.5226  139.3890  160.3813 C.3     1  UNL1        0.0609
     26 C         137.3599  141.1743  157.0330 C.3     1  UNL1        0.0575
     27 C         136.1418  141.0043  156.1743 C.3     1  UNL1        0.0160
     28 C         136.2826  142.4186  155.6948 C.3     1  UNL1        0.0028
     29 C         137.5006  142.5885  156.5535 C.3     1  UNL1        0.0160
@<TRIPOS>BOND
     1     7     8    1
     2     8     9   ar
     3     9    10   ar
     4    10    11   ar
     5    11    12   ar
     6    12    13   ar
     7    13    14   ar
     8    14    15   ar
     9    15    16   ar
    10    16    17    2
    11    16    18   ar
    12    18     1    1
    13     1     2   ar
    14     2     3   ar
    15     3     4   ar
    16     4    19    1
    17    19    20    1
    18    20    21    1
    19    21    22    1
    20    22    23    1
    21    23    26    1
    22    26    27    1
    23    27    28    1
    24    28    29    1
    25    23    24    1
    26    24    25    1
    27     4     5   ar
    28     5     6   ar
    29    18     8   ar
    30     6     1   ar
    31    15    10   ar
    32    25    20    1
    33    29    26    1
@<TRIPOS>MOLECULE
*****
 29 33 0 0 0
SMALL
GASTEIGER

@<TRIPOS>ATOM
      1 C         138.9990  140.5851  164.8539 C.ar    1  UNL1        0.0681
      2 C         137.8303  141.3842  164.3584 C.ar    1  UNL1        0.0208
      3 C         137.4709  141.3634  162.9023 C.ar    1  UNL1        0.0384
      4 C         138.2801  140.5436  161.9417 C.ar    1  UNL1        0.1385
      5 C         139.4488  139.7444  162.4372 C.ar    1  UNL1        0.0384
      6 C         139.8083  139.7652  163.8933 C.ar    1  UNL1        0.0208
      7 C         137.8212  138.5515  166.7187 C.3     1  UNL1        0.0723
      8 C         138.7695  139.5891  167.2425 C.ar    1  UNL1        0.1269
      9 N         139.1288  139.6098  168.6987 N.ar    1  UNL1       -0.2303
     10 C         140.0771  140.6474  169.2225 C.ar    1  UNL1        0.1049
     11 C         140.4365  140.6681  170.6786 C.ar    1  UNL1        0.0224
     12 C         141.3847  141.7057  171.2024 C.ar    1  UNL1        0.0222
     13 C         141.9736  142.7224  170.2700 C.ar    1  UNL1        0.0991
     14 N         141.6142  142.7017  168.8138 N.ar    1  UNL1       -0.2375
     15 C         140.6660  141.6642  168.2901 C.ar    1  UNL1        0.1551
     16 C         140.3066  141.6434  166.8339 C.ar    1  UNL1        0.2847
     17 O         140.8955  142.6602  165.9015 O.2     1  UNL1       -0.2649
     18 N         139.3584  140.6059  166.3101 N.ar    1  UNL1       -0.2613
     19 O         137.9207  140.5228  160.4855 O.3     1  UNL1       -0.4791
     20 C         138.4332  141.5958  159.5711 C.3     1  UNL1        0.1687
     21 C         138.0963  141.5599  158.1098 C.3     1  UNL1        0.0609
     22 C         138.6088  142.6329  157.1955 C.3     1  UNL1        0.0758
     23 N         139.4581  143.7418  157.7424 N.3     1  UNL1       -0.2737
     24 C         139.7950  143.7776  159.2037 C.3     1  UNL1        0.0758
     25 C         139.2825  142.7046  160.1180 C.3     1  UNL1        0.0609
     26 C         139.9706  144.8148  156.8281 C.3     1  UNL1        0.0575
     27 C         140.4252  144.8630  155.3994 C.3     1  UNL1        0.0160
     28 C         140.6953  146.3323  155.5350 C.3     1  UNL1        0.0028
     29 C         140.2407  146.2840  156.9636 C.3     1  UNL1        0.0160
@<TRIPOS>BOND
     1     7     8    1
     2     8     9   ar
     3     9    10   ar
     4    10    11   ar
     5    11    12   ar
     6    12    13   ar
     7    13    14   ar
     8    14    15   ar
     9    15    16   ar
    10    16    17    2
    11    16    18   ar
    12    18     1    1
    13     1     2   ar
    14     2     3   ar
    15     3     4   ar
    16     4    19    1
    17    19    20    1
    18    20    21    1
    19    21    22    1
    20    22    23    1
    21    23    26    1
    22    26    27    1
    23    27    28    1
    24    28    29    1
    25    23    24    1
    26    24    25    1
    27     4     5   ar
    28     5     6   ar
    29    18     8   ar
    30     6     1   ar
    31    15    10   ar
    32    25    20    1
    33    29    26    1
@<TRIPOS>MOLECULE
*****
 29 33 0 0 0
SMALL
GASTEIGER

@<TRIPOS>ATOM
      1 C         140.3688  139.3236  159.7875 C.ar    1  UNL1        0.0681
      2 C         139.4665  138.7144  158.7557 C.ar    1  UNL1        0.0208
      3 C         140.0526  137.9812  157.5858 C.ar    1  UNL1        0.0384
      4 C         141.5411  137.8573  157.4476 C.ar    1  UNL1        0.1385
      5 C         142.4434  138.4666  158.4794 C.ar    1  UNL1        0.0384
      6 C         141.8573  139.1997  159.6494 C.ar    1  UNL1        0.0208
      7 C         139.8816  137.8795  162.3715 C.3     1  UNL1        0.0723
      8 C         139.5390  139.3348  162.2495 C.ar    1  UNL1        0.1269
      9 N         138.9528  140.0679  163.4195 N.ar    1  UNL1       -0.2303
     10 C         138.6102  141.5232  163.2975 C.ar    1  UNL1        0.1049
     11 C         138.0240  142.2563  164.4674 C.ar    1  UNL1        0.0224
     12 C         137.6815  143.7116  164.3454 C.ar    1  UNL1        0.0222
     13 C         137.9251  144.4336  163.0534 C.ar    1  UNL1        0.0991
     14 N         138.5113  143.7005  161.8835 N.ar    1  UNL1       -0.2375
     15 C         138.8538  142.2453  162.0055 C.ar    1  UNL1        0.1551
     16 C         139.4400  141.5121  160.8355 C.ar    1  UNL1        0.2847
     17 O         139.6837  142.2342  159.5435 O.2     1  UNL1       -0.2649
     18 N         139.7826  140.0569  160.9575 N.ar    1  UNL1       -0.2613
     19 O         142.1273  137.1240  156.2776 O.3     1  UNL1       -0.4791
     20 C         142.2647  135.6310  156.3206 C.3     1  UNL1        0.1687
     21 C         141.4332  134.7748  155.4119 C.3     1  UNL1        0.0609
     22 C         141.5707  133.2817  155.4550 C.3     1  UNL1        0.0758
     23 N         142.5396  132.6448  156.4066 N.3     1  UNL1       -0.2737
     24 C         143.3711  133.5010  157.3152 C.3     1  UNL1        0.0758
     25 C         143.2336  134.9941  157.2722 C.3     1  UNL1        0.0609
     26 C         142.6771  131.1518  156.4496 C.3     1  UNL1        0.0575
     27 C         143.3943  130.1777  157.3368 C.3     1  UNL1        0.0160
     28 C         142.8714  129.0403  156.5104 C.3     1  UNL1        0.0028
     29 C         142.1543  130.0142  155.6234 C.3     1  UNL1        0.0160
@<TRIPOS>BOND
     1     7     8    1
     2     8     9   ar
     3     9    10   ar
     4    10    11   ar
     5    11    12   ar
     6    12    13   ar
     7    13    14   ar
     8    14    15   ar
     9    15    16   ar
    10    16    17    2
    11    16    18   ar
    12    18     1    1
    13     1     2   ar
    14     2     3   ar
    15     3     4   ar
    16     4    19    1
    17    19    20    1
    18    20    21    1
    19    21    22    1
    20    22    23    1
    21    23    26    1
    22    26    27    1
    23    27    28    1
    24    28    29    1
    25    23    24    1
    26    24    25    1
    27     4     5   ar
    28     5     6   ar
    29    18     8   ar
    30     6     1   ar
    31    15    10   ar
    32    25    20    1
    33    29    26    1
@<TRIPOS>MOLECULE
*****
 29 33 0 0 0
SMALL
GASTEIGER

@<TRIPOS>ATOM
      1 C         140.9316  139.4153  160.2663 C.ar    1  UNL1        0.0681
      2 C         142.1703  138.6797  160.6841 C.ar    1  UNL1        0.0208
      3 C         142.9714  137.9218  159.6674 C.ar    1  UNL1        0.0384
      4 C         142.5338  137.8995  158.2329 C.ar    1  UNL1        0.1385
      5 C         141.2951  138.6350  157.8150 C.ar    1  UNL1        0.0384
      6 C         140.4940  139.3929  158.8317 C.ar    1  UNL1        0.0208
      7 C         138.8210  138.0064  161.8665 C.3     1  UNL1        0.0723
      8 C         139.0752  139.4688  162.0832 C.ar    1  UNL1        0.1269
      9 N         138.2741  140.2267  163.0999 N.ar    1  UNL1       -0.2303
     10 C         138.5282  141.6891  163.3166 C.ar    1  UNL1        0.1049
     11 C         137.7271  142.4469  164.3334 C.ar    1  UNL1        0.0224
     12 C         137.9813  143.9093  164.5500 C.ar    1  UNL1        0.0222
     13 C         139.0366  144.6137  163.7499 C.ar    1  UNL1        0.0991
     14 N         139.8377  143.8558  162.7332 N.ar    1  UNL1       -0.2375
     15 C         139.5835  142.3935  162.5165 C.ar    1  UNL1        0.1551
     16 C         140.3846  141.6356  161.4997 C.ar    1  UNL1        0.2847
     17 O         141.4399  142.3400  160.6996 O.2     1  UNL1       -0.2649
     18 N         140.1304  140.1733  161.2831 N.ar    1  UNL1       -0.2613
     19 O         143.3349  137.1415  157.2161 O.3     1  UNL1       -0.4791
     20 C         142.8812  135.7854  156.7630 C.3     1  UNL1        0.1687
     21 C         143.4588  134.5523  157.3923 C.3     1  UNL1        0.0609
     22 C         143.0051  133.1963  156.9393 C.3     1  UNL1        0.0758
     23 N         141.9738  133.0733  155.8570 N.3     1  UNL1       -0.2737
     24 C         141.3962  134.3063  155.2278 C.3     1  UNL1        0.0758
     25 C         141.8499  135.6624  155.6808 C.3     1  UNL1        0.0609
     26 C         141.5201  131.7172  155.4040 C.3     1  UNL1        0.0575
     27 C         142.0321  130.3171  155.5702 C.3     1  UNL1        0.0160
     28 C         140.8785  129.7995  154.7633 C.3     1  UNL1        0.0028
     29 C         140.3665  131.1995  154.5970 C.3     1  UNL1        0.0160
@<TRIPOS>BOND
     1     7     8    1
     2     8     9   ar
     3     9    10   ar
     4    10    11   ar
     5    11    12   ar
     6    12    13   ar
     7    13    14   ar
     8    14    15   ar
     9    15    16   ar
    10    16    17    2
    11    16    18   ar
    12    18     1    1
    13     1     2   ar
    14     2     3   ar
    15     3     4   ar
    16     4    19    1
    17    19    20    1
    18    20    21    1
    19    21    22    1
    20    22    23    1
    21    23    26    1
    22    26    27    1
    23    27    28    1
    24    28    29    1
    25    23    24    1
    26    24    25    1
    27     4     5   ar
    28     5     6   ar
    29    18     8   ar
    30     6     1   ar
    31    15    10   ar
    32    25    20    1
    33    29    26    1
@<TRIPOS>MOLECULE
*****
 29 33 0 0 0
SMALL
GASTEIGER

@<TRIPOS>ATOM
      1 C         142.0776  138.8852  159.8103 C.ar    1  UNL1        0.0681
      2 C         142.5972  137.9643  160.8743 C.ar    1  UNL1        0.0208
      3 C         141.7167  137.5745  162.0243 C.ar    1  UNL1        0.0384
      4 C         140.3166  138.1057  162.1105 C.ar    1  UNL1        0.1385
      5 C         139.7970  139.0266  161.0465 C.ar    1  UNL1        0.0384
      6 C         140.6775  139.4163  159.8964 C.ar    1  UNL1        0.0208
      7 C         142.0887  137.2367  157.3039 C.3     1  UNL1        0.0723
      8 C         142.9638  138.4506  157.4070 C.ar    1  UNL1        0.1269
      9 N         143.8443  138.8403  156.2569 N.ar    1  UNL1       -0.2303
     10 C         144.7194  140.0543  156.3600 C.ar    1  UNL1        0.1049
     11 C         145.6000  140.4439  155.2099 C.ar    1  UNL1        0.0224
     12 C         146.4750  141.6579  155.3130 C.ar    1  UNL1        0.0222
     13 C         146.4695  142.4821  156.5663 C.ar    1  UNL1        0.0991
     14 N         145.5889  142.0924  157.7164 N.ar    1  UNL1       -0.2375
     15 C         144.7139  140.8785  157.6132 C.ar    1  UNL1        0.1551
     16 C         143.8333  140.4888  158.7633 C.ar    1  UNL1        0.2847
     17 O         143.8277  141.3131  160.0166 O.2     1  UNL1       -0.2649
     18 N         142.9582  139.2749  158.6602 N.ar    1  UNL1       -0.2613
     19 O         139.4359  137.7160  163.2606 O.3     1  UNL1       -0.4791
     20 C         139.5101  138.4745  164.5525 C.3     1  UNL1        0.1687
     21 C         140.6437  139.4252  164.8001 C.3     1  UNL1        0.0609
     22 C         140.7178  140.1837  166.0921 C.3     1  UNL1        0.0758
     23 N         139.6583  139.9916  167.1364 N.3     1  UNL1       -0.2737
     24 C         138.5247  139.0410  166.8888 C.3     1  UNL1        0.0758
     25 C         138.4506  138.2825  165.5969 C.3     1  UNL1        0.0609
     26 C         139.7324  140.7501  168.4284 C.3     1  UNL1        0.0575
     27 C         140.3897  142.0223  168.8752 C.3     1  UNL1        0.0160
     28 C         139.8373  141.8229  170.2554 C.3     1  UNL1        0.0028
     29 C         139.1801  140.5508  169.8086 C.3     1  UNL1        0.0160
@<TRIPOS>BOND
     1     7     8    1
     2     8     9   ar
     3     9    10   ar
     4    10    11   ar
     5    11    12   ar
     6    12    13   ar
     7    13    14   ar
     8    14    15   ar
     9    15    16   ar
    10    16    17    2
    11    16    18   ar
    12    18     1    1
    13     1     2   ar
    14     2     3   ar
    15     3     4   ar
    16     4    19    1
    17    19    20    1
    18    20    21    1
    19    21    22    1
    20    22    23    1
    21    23    26    1
    22    26    27    1
    23    27    28    1
    24    28    29    1
    25    23    24    1
    26    24    25    1
    27     4     5   ar
    28     5     6   ar
    29    18     8   ar
    30     6     1   ar
    31    15    10   ar
    32    25    20    1
    33    29    26    1
@<TRIPOS>MOLECULE
*****
 29 33 0 0 0
SMALL
GASTEIGER

@<TRIPOS>ATOM
      1 C         139.8063  139.2549  164.8801 C.ar    1  UNL1        0.0681
      2 C         139.2471  140.2588  163.9160 C.ar    1  UNL1        0.0208
      3 C         139.0379  139.8828  162.4790 C.ar    1  UNL1        0.0384
      4 C         139.3880  138.5030  162.0062 C.ar    1  UNL1        0.1385
      5 C         139.9472  137.4992  162.9704 C.ar    1  UNL1        0.0384
      6 C         140.1564  137.8751  164.4073 C.ar    1  UNL1        0.0208
      7 C         137.6782  138.6639  166.9103 C.3     1  UNL1        0.0723
      8 C         138.9514  139.3354  167.3322 C.ar    1  UNL1        0.1269
      9 N         139.1605  139.7114  168.7691 N.ar    1  UNL1       -0.2303
     10 C         140.4338  140.3830  169.1911 C.ar    1  UNL1        0.1049
     11 C         140.6429  140.7590  170.6280 C.ar    1  UNL1        0.0224
     12 C         141.9161  141.4305  171.0499 C.ar    1  UNL1        0.0222
     13 C         142.9802  141.7260  170.0348 C.ar    1  UNL1        0.0991
     14 N         142.7711  141.3500  168.5978 N.ar    1  UNL1       -0.2375
     15 C         141.4979  140.6785  168.1760 C.ar    1  UNL1        0.1551
     16 C         141.2887  140.3025  166.7390 C.ar    1  UNL1        0.2847
     17 O         142.3528  140.5980  165.7239 O.2     1  UNL1       -0.2649
     18 N         140.0155  139.6310  166.3171 N.ar    1  UNL1       -0.2613
     19 O         139.1788  138.1270  160.5692 O.3     1  UNL1       -0.4791
     20 C         140.2646  138.3730  159.5639 C.3     1  UNL1        0.1687
     21 C         139.9462  138.3615  158.0981 C.3     1  UNL1        0.0609
     22 C         141.0319  138.6075  157.0928 C.3     1  UNL1        0.0758
     23 N         142.4362  138.8649  157.5534 N.3     1  UNL1       -0.2737
     24 C         142.7545  138.8763  159.0191 C.3     1  UNL1        0.0758
     25 C         141.6688  138.6303  160.0244 C.3     1  UNL1        0.0609
     26 C         143.5219  139.1109  156.5481 C.3     1  UNL1        0.0575
     27 C         144.0523  138.3695  155.3568 C.3     1  UNL1        0.0160
     28 C         145.0574  139.4588  155.1264 C.3     1  UNL1        0.0028
     29 C         144.5272  140.2001  156.3176 C.3     1  UNL1        0.0160
@<TRIPOS>BOND
     1     7     8    1
     2     8     9   ar
     3     9    10   ar
     4    10    11   ar
     5    11    12   ar
     6    12    13   ar
     7    13    14   ar
     8    14    15   ar
     9    15    16   ar
    10    16    17    2
    11    16    18   ar
    12    18     1    1
    13     1     2   ar
    14     2     3   ar
    15     3     4   ar
    16     4    19    1
    17    19    20    1
    18    20    21    1
    19    21    22    1
    20    22    23    1
    21    23    26    1
    22    26    27    1
    23    27    28    1
    24    28    29    1
    25    23    24    1
    26    24    25    1
    27     4     5   ar
    28     5     6   ar
    29    18     8   ar
    30     6     1   ar
    31    15    10   ar
    32    25    20    1
    33    29    26    1
@<TRIPOS>MOLECULE
*****
 29 33 0 0 0
SMALL
GASTEIGER

@<TRIPOS>ATOM
      1 C         141.7188  138.7090  161.5497 C.ar    1  UNL1        0.0681
      2 C         141.0794  139.3114  160.3338 C.ar    1  UNL1        0.0208
      3 C         141.5340  138.8989  158.9652 C.ar    1  UNL1        0.0384
      4 C         142.6279  137.8841  158.8124 C.ar    1  UNL1        0.1385
      5 C         143.2673  137.2818  160.0282 C.ar    1  UNL1        0.0384
      6 C         142.8128  137.6942  161.3969 C.ar    1  UNL1        0.0208
      7 C         143.1874  140.8648  163.0316 C.3     1  UNL1        0.0723
      8 C         141.9985  140.1994  163.6593 C.ar    1  UNL1        0.1269
      9 N         141.5440  140.6119  165.0280 N.ar    1  UNL1       -0.2303
     10 C         140.3551  139.9465  165.6557 C.ar    1  UNL1        0.1049
     11 C         139.9006  140.3590  167.0243 C.ar    1  UNL1        0.0224
     12 C         138.7118  139.6937  167.6520 C.ar    1  UNL1        0.0222
     13 C         137.9775  138.6158  166.9110 C.ar    1  UNL1        0.0991
     14 N         138.4321  138.2033  165.5424 N.ar    1  UNL1       -0.2375
     15 C         139.6209  138.8687  164.9147 C.ar    1  UNL1        0.1551
     16 C         140.0754  138.4562  163.5460 C.ar    1  UNL1        0.2847
     17 O         139.3412  137.3783  162.8050 O.2     1  UNL1       -0.2649
     18 N         141.2642  139.1215  162.9184 N.ar    1  UNL1       -0.2613
     19 O         143.0825  137.4716  157.4437 O.3     1  UNL1       -0.4791
     20 C         142.7216  136.1170  156.9101 C.3     1  UNL1        0.1687
     21 C         141.6698  135.9847  155.8488 C.3     1  UNL1        0.0609
     22 C         141.3090  134.6301  155.3152 C.3     1  UNL1        0.0758
     23 N         141.9998  133.4077  155.8430 N.3     1  UNL1       -0.2737
     24 C         143.0515  133.5400  156.9043 C.3     1  UNL1        0.0758
     25 C         143.4124  134.8946  157.4379 C.3     1  UNL1        0.0609
     26 C         141.6390  132.0530  155.3095 C.3     1  UNL1        0.0575
     27 C         142.1537  130.6595  155.5174 C.3     1  UNL1        0.0160
     28 C         141.1286  130.1372  154.5550 C.3     1  UNL1        0.0028
     29 C         140.6139  131.5306  154.3470 C.3     1  UNL1        0.0160
@<TRIPOS>BOND
     1     7     8    1
     2     8     9   ar
     3     9    10   ar
     4    10    11   ar
     5    11    12   ar
     6    12    13   ar
     7    13    14   ar
     8    14    15   ar
     9    15    16   ar
    10    16    17    2
    11    16    18   ar
    12    18     1    1
    13     1     2   ar
    14     2     3   ar
    15     3     4   ar
    16     4    19    1
    17    19    20    1
    18    20    21    1
    19    21    22    1
    20    22    23    1
    21    23    26    1
    22    26    27    1
    23    27    28    1
    24    28    29    1
    25    23    24    1
    26    24    25    1
    27     4     5   ar
    28     5     6   ar
    29    18     8   ar
    30     6     1   ar
    31    15    10   ar
    32    25    20    1
    33    29    26    1
@<TRIPOS>MOLECULE
*****
 29 33 0 0 0
SMALL
GASTEIGER

@<TRIPOS>ATOM
      1 C         140.2531  138.9475  160.4038 C.ar    1  UNL1        0.0681
      2 C         139.4706  138.0197  161.2852 C.ar    1  UNL1        0.0208
      3 C         138.7621  138.5537  162.4947 C.ar    1  UNL1        0.0384
      4 C         138.8360  140.0155  162.8227 C.ar    1  UNL1        0.1385
      5 C         139.6185  140.9433  161.9412 C.ar    1  UNL1        0.0384
      6 C         140.3270  140.4093  160.7318 C.ar    1  UNL1        0.0208
      7 C         143.0335  137.8497  160.6570 C.3     1  UNL1        0.0723
      8 C         142.3518  137.8645  159.3209 C.ar    1  UNL1        0.1269
      9 N         143.0603  137.3305  158.1115 N.ar    1  UNL1       -0.2303
     10 C         142.3787  137.3453  156.7754 C.ar    1  UNL1        0.1049
     11 C         143.0872  136.8112  155.5659 C.ar    1  UNL1        0.0224
     12 C         142.4055  136.8261  154.2299 C.ar    1  UNL1        0.0222
     13 C         141.0153  137.3750  154.1033 C.ar    1  UNL1        0.0991
     14 N         140.3068  137.9090  155.3127 N.ar    1  UNL1       -0.2375
     15 C         140.9885  137.8942  156.6487 C.ar    1  UNL1        0.1551
     16 C         140.2799  138.4283  157.8582 C.ar    1  UNL1        0.2847
     17 O         138.8897  138.9772  157.7316 O.2     1  UNL1       -0.2649
     18 N         140.9616  138.4134  159.1943 N.ar    1  UNL1       -0.2613
     19 O         138.1275  140.5496  164.0322 O.3     1  UNL1       -0.4791
     20 C         138.9182  141.0506  165.2042 C.3     1  UNL1        0.1687
     21 C         139.2415  140.1268  166.3409 C.3     1  UNL1        0.0609
     22 C         140.0322  140.6278  167.5130 C.3     1  UNL1        0.0758
     23 N         140.4995  142.0528  167.5484 N.3     1  UNL1       -0.2737
     24 C         140.1762  142.9766  166.4117 C.3     1  UNL1        0.0758
     25 C         139.3855  142.4755  165.2397 C.3     1  UNL1        0.0609
     26 C         141.2902  142.5538  168.7204 C.3     1  UNL1        0.0575
     27 C         140.9923  143.4192  169.9089 C.3     1  UNL1        0.0160
     28 C         142.4084  143.2625  170.3780 C.3     1  UNL1        0.0028
     29 C         142.7063  142.3971  169.1896 C.3     1  UNL1        0.0160
@<TRIPOS>BOND
     1     7     8    1
     2     8     9   ar
     3     9    10   ar
     4    10    11   ar
     5    11    12   ar
     6    12    13   ar
     7    13    14   ar
     8    14    15   ar
     9    15    16   ar
    10    16    17    2
    11    16    18   ar
    12    18     1    1
    13     1     2   ar
    14     2     3   ar
    15     3     4   ar
    16     4    19    1
    17    19    20    1
    18    20    21    1
    19    21    22    1
    20    22    23    1
    21    23    26    1
    22    26    27    1
    23    27    28    1
    24    28    29    1
    25    23    24    1
    26    24    25    1
    27     4     5   ar
    28     5     6   ar
    29    18     8   ar
    30     6     1   ar
    31    15    10   ar
    32    25    20    1
    33    29    26    1
@<TRIPOS>MOLECULE
*****
 29 33 0 0 0
SMALL
GASTEIGER

@<TRIPOS>ATOM
      1 C         138.6405  140.8363  160.1061 C.ar    1  UNL1        0.0681
      2 C         139.4707  139.5872  160.0839 C.ar    1  UNL1        0.0208
      3 C         139.4945  138.6812  161.2791 C.ar    1  UNL1        0.0384
      4 C         138.6881  139.0242  162.4964 C.ar    1  UNL1        0.1385
      5 C         137.8579  140.2733  162.5186 C.ar    1  UNL1        0.0384
      6 C         137.8340  141.1793  161.3235 C.ar    1  UNL1        0.0208
      7 C         140.4875  143.1967  159.9762 C.3     1  UNL1        0.0723
      8 C         139.5402  142.9225  158.8459 C.ar    1  UNL1        0.1269
      9 N         139.5164  143.8286  157.6507 N.ar    1  UNL1       -0.2303
     10 C         138.5691  143.5544  156.5204 C.ar    1  UNL1        0.1049
     11 C         138.5453  144.4605  155.3253 C.ar    1  UNL1        0.0224
     12 C         137.5980  144.1863  154.1951 C.ar    1  UNL1        0.0222
     13 C         136.6745  143.0061  154.2600 C.ar    1  UNL1        0.0991
     14 N         136.6983  142.1001  155.4552 N.ar    1  UNL1       -0.2375
     15 C         137.6456  142.3742  156.5854 C.ar    1  UNL1        0.1551
     16 C         137.6694  141.4682  157.7807 C.ar    1  UNL1        0.2847
     17 O         136.7458  140.2880  157.8456 O.2     1  UNL1       -0.2649
     18 N         138.6167  141.7423  158.9109 N.ar    1  UNL1       -0.2613
     19 O         138.7119  138.1181  163.6917 O.3     1  UNL1       -0.4791
     20 C         139.0800  138.6641  165.0395 C.3     1  UNL1        0.1687
     21 C         138.0628  138.6898  166.1416 C.3     1  UNL1        0.0609
     22 C         138.4309  139.2358  167.4893 C.3     1  UNL1        0.0758
     23 N         139.8162  139.7560  167.7350 N.3     1  UNL1       -0.2737
     24 C         140.8334  139.7302  166.6329 C.3     1  UNL1        0.0758
     25 C         140.4653  139.1843  165.2851 C.3     1  UNL1        0.0609
     26 C         140.1843  140.3020  169.0827 C.3     1  UNL1        0.0575
     27 C         141.0480  139.8346  170.2167 C.3     1  UNL1        0.0160
     28 C         140.7049  141.0741  170.9887 C.3     1  UNL1        0.0028
     29 C         139.8413  141.5413  169.8549 C.3     1  UNL1        0.0160
@<TRIPOS>BOND
     1     7     8    1
     2     8     9   ar
     3     9    10   ar
     4    10    11   ar
     5    11    12   ar
     6    12    13   ar
     7    13    14   ar
     8    14    15   ar
     9    15    16   ar
    10    16    17    2
    11    16    18   ar
    12    18     1    1
    13     1     2   ar
    14     2     3   ar
    15     3     4   ar
    16     4    19    1
    17    19    20    1
    18    20    21    1
    19    21    22    1
    20    22    23    1
    21    23    26    1
    22    26    27    1
    23    27    28    1
    24    28    29    1
    25    23    24    1
    26    24    25    1
    27     4     5   ar
    28     5     6   ar
    29    18     8   ar
    30     6     1   ar
    31    15    10   ar
    32    25    20    1
    33    29    26    1
