@<TRIPOS>MOLECULE
*****
 32 36 0 0 0
SMALL
GASTEIGER

@<TRIPOS>ATOM
      1 C         142.8327  138.9525  158.2708 C.ar    1  UNL1        0.1233
      2 C         142.3294  137.5395  158.2807 C.ar    1  UNL1        0.1180
      3 N         142.9460  136.8196  157.1182 N.ar    1  UNL1       -0.2233
      4 N         143.8303  137.7877  156.3897 N.ar    1  UNL1       -0.0634
      5 N         143.7603  139.1059  157.1021 N.ar    1  UNL1       -0.1287
      6 C         142.7182  135.3837  156.7489 C.3     1  UNL1        0.1825
      7 C         143.6303  134.3903  157.4055 C.3     1  UNL1        0.0339
      8 C         143.6578  132.8989  157.2472 C.3     1  UNL1        0.0041
      9 C         142.7802  132.0326  156.3932 C.3     1  UNL1        0.0181
     10 C         143.1439  130.5836  156.5267 C.3     1  UNL1        0.0016
     11 C         142.3856  129.5457  155.7536 C.3     1  UNL1        0.0001
     12 C         141.2636  129.9568  154.8470 C.3     1  UNL1        0.0017
     13 C         140.8998  131.4059  154.7135 C.3     1  UNL1        0.0196
     14 C         141.6581  132.4438  155.4866 C.3     1  UNL1        0.0716
     15 N         141.1367  133.8228  155.2101 N.am    1  UNL1       -0.3044
     16 C         141.6084  135.1312  155.7718 C.2     1  UNL1        0.2449
     17 O         140.8732  136.3479  155.2932 O.2     1  UNL1       -0.2730
     18 H         140.3854  133.8762  154.5760 H       1  UNL1        0.1494
     19 C         142.9233  141.2706  161.4907 C.ar    1  UNL1        0.1547
     20 C         143.2844  140.1992  160.5051 C.ar    1  UNL1        0.0400
     21 C         142.4717  140.0240  159.2565 C.ar    1  UNL1        0.0241
     22 C         141.2980  140.9202  158.9937 C.ar    1  UNL1        0.0033
     23 C         140.9370  141.9917  159.9794 C.ar    1  UNL1        0.0207
     24 C         141.7496  142.1669  161.2279 C.ar    1  UNL1        0.0994
     25 N         141.3886  143.2384  162.2136 N.ar    1  UNL1       -0.2839
     26 C         142.1525  144.5061  162.4572 C.ar    1  UNL1        0.1826
     27 N         141.4362  145.2814  163.5229 N.ar    1  UNL1       -0.2280
     28 C         140.2297  144.4930  163.9380 C.ar    1  UNL1        0.0786
     29 C         139.2283  144.8963  164.9795 C.3     1  UNL1        0.0538
     30 C         140.2002  143.2303  163.1288 C.ar    1  UNL1        0.0963
     31 C         145.1510  141.9357  162.6505 C.3     1  UNL1        0.2525
     32 O         143.7360  141.4458  162.7392 O.3     1  UNL1       -0.4700
@<TRIPOS>BOND
     1    31    32    1
     2    32    19    1
     3    19    20   ar
     4    20    21   ar
     5    21     1    1
     6     1     2   ar
     7     2     3   ar
     8     3     6    1
     9     6     7    1
    10     7     8    1
    11     9     8    1
    12     9    10    1
    13    10    11    1
    14    11    12    1
    15    12    13    1
    16    14    13    1
    17    14    15    1
    18    15    16   am
    19    16    17    2
    20     3     4   ar
    21     4     5   ar
    22    21    22   ar
    23    22    23   ar
    24    23    24   ar
    25    24    25    1
    26    25    26   ar
    27    26    27   ar
    28    27    28   ar
    29    28    29    1
    30    28    30   ar
    31    24    19   ar
    32    30    25   ar
    33     5     1   ar
    34    16     6    1
    35    14     9    1
    36    15    18    1
@<TRIPOS>MOLECULE
*****
 32 36 0 0 0
SMALL
GASTEIGER

@<TRIPOS>ATOM
      1 C         143.0865  138.1767  159.7445 C.ar    1  UNL1        0.1233
      2 C         142.7646  136.8509  159.1210 C.ar    1  UNL1        0.1180
      3 N         142.9352  136.9831  157.6367 N.ar    1  UNL1       -0.2233
      4 N         143.3625  138.3906  157.3428 N.ar    1  UNL1       -0.0634
      5 N         143.4560  139.1283  158.6455 N.ar    1  UNL1       -0.1287
      6 C         142.7169  135.8982  156.6240 C.3     1  UNL1        0.1825
      7 C         143.7104  134.7747  156.6494 C.3     1  UNL1        0.0339
      8 C         143.7662  133.5559  155.7769 C.3     1  UNL1        0.0041
      9 C         142.8424  133.1594  154.6635 C.3     1  UNL1        0.0181
     10 C         143.2573  131.8577  154.0444 C.3     1  UNL1        0.0016
     11 C         142.4643  131.2805  152.9096 C.3     1  UNL1        0.0001
     12 C         141.2564  132.0052  152.3937 C.3     1  UNL1        0.0017
     13 C         140.8416  133.3069  153.0128 C.3     1  UNL1        0.0196
     14 C         141.6346  133.8841  154.1477 C.3     1  UNL1        0.0716
     15 N         141.0523  135.1840  154.6178 N.am    1  UNL1       -0.3044
     16 C         141.5339  136.0805  155.7199 C.2     1  UNL1        0.2449
     17 O         140.7257  137.3233  155.9480 O.2     1  UNL1       -0.2730
     18 H         140.2475  135.4893  154.1399 H       1  UNL1        0.1494
     19 C         144.1740  139.4895  163.3283 C.ar    1  UNL1        0.1547
     20 C         144.2146  139.1713  161.8630 C.ar    1  UNL1        0.0400
     21 C         143.0459  138.4949  161.2098 C.ar    1  UNL1        0.0241
     22 C         141.8367  138.1368  162.0219 C.ar    1  UNL1        0.0033
     23 C         141.7962  138.4551  163.4872 C.ar    1  UNL1        0.0207
     24 C         142.9648  139.1314  164.1403 C.ar    1  UNL1        0.0994
     25 N         142.9242  139.4497  165.6057 N.ar    1  UNL1       -0.2839
     26 C         143.2411  138.5006  166.7232 C.ar    1  UNL1        0.1826
     27 N         143.0723  139.2373  168.0188 N.ar    1  UNL1       -0.2280
     28 C         142.6511  140.6416  167.7022 C.ar    1  UNL1        0.0786
     29 C         142.3707  141.7246  168.7014 C.3     1  UNL1        0.0538
     30 C         142.5596  140.7729  166.2107 C.ar    1  UNL1        0.0963
     31 C         145.6322  141.6089  163.6916 C.3     1  UNL1        0.2525
     32 O         145.3427  140.1659  163.9815 O.3     1  UNL1       -0.4700
@<TRIPOS>BOND
     1    31    32    1
     2    32    19    1
     3    19    20   ar
     4    20    21   ar
     5    21     1    1
     6     1     2   ar
     7     2     3   ar
     8     3     6    1
     9     6     7    1
    10     7     8    1
    11     9     8    1
    12     9    10    1
    13    10    11    1
    14    11    12    1
    15    12    13    1
    16    14    13    1
    17    14    15    1
    18    15    16   am
    19    16    17    2
    20     3     4   ar
    21     4     5   ar
    22    21    22   ar
    23    22    23   ar
    24    23    24   ar
    25    24    25    1
    26    25    26   ar
    27    26    27   ar
    28    27    28   ar
    29    28    29    1
    30    28    30   ar
    31    24    19   ar
    32    30    25   ar
    33     5     1   ar
    34    16     6    1
    35    14     9    1
    36    15    18    1
@<TRIPOS>MOLECULE
*****
 32 36 0 0 0
SMALL
GASTEIGER

@<TRIPOS>ATOM
      1 C         141.2222  138.2662  161.9113 C.ar    1  UNL1        0.1233
      2 C         141.4544  139.4605  162.7886 C.ar    1  UNL1        0.1180
      3 N         141.2418  139.0384  164.2122 N.ar    1  UNL1       -0.2233
      4 N         140.8782  137.5832  164.2147 N.ar    1  UNL1       -0.0634
      5 N         140.8661  137.1059  162.7927 N.ar    1  UNL1       -0.1287
      6 C         141.3703  139.9173  165.4209 C.3     1  UNL1        0.1825
      7 C         140.1957  140.8051  165.7079 C.3     1  UNL1        0.0339
      8 C         140.0172  141.7869  166.8277 C.3     1  UNL1        0.0041
      9 C         140.9690  142.1236  167.9372 C.3     1  UNL1        0.0181
     10 C         140.3975  143.1657  168.8522 C.3     1  UNL1        0.0016
     11 C         141.1915  143.6457  170.0308 C.3     1  UNL1        0.0001
     12 C         142.5569  143.0836  170.2944 C.3     1  UNL1        0.0017
     13 C         143.1284  142.0414  169.3794 C.3     1  UNL1        0.0196
     14 C         142.3344  141.5614  168.2008 C.3     1  UNL1        0.0716
     15 N         143.0853  140.5238  167.4200 N.am    1  UNL1       -0.3044
     16 C         142.6563  139.7921  166.1829 C.2     1  UNL1        0.2449
     17 O         143.6437  138.8046  165.6353 O.2     1  UNL1       -0.2730
     18 H         143.9778  140.2925  167.7652 H       1  UNL1        0.1494
     19 C         140.2273  138.5018  158.0767 C.ar    1  UNL1        0.1547
     20 C         140.1218  138.5307  159.5726 C.ar    1  UNL1        0.0400
     21 C         141.3276  138.2372  160.4153 C.ar    1  UNL1        0.0241
     22 C         142.6387  137.9147  159.7619 C.ar    1  UNL1        0.0033
     23 C         142.7441  137.8858  158.2659 C.ar    1  UNL1        0.0207
     24 C         141.5384  138.1793  157.4233 C.ar    1  UNL1        0.0994
     25 N         141.6438  138.1503  155.9273 N.ar    1  UNL1       -0.2839
     26 C         141.8614  139.3367  155.0355 C.ar    1  UNL1        0.1826
     27 N         141.9022  138.8494  153.6175 N.ar    1  UNL1       -0.2280
     28 C         141.7099  137.3620  153.6328 C.ar    1  UNL1        0.0786
     29 C         141.6822  136.4641  152.4315 C.3     1  UNL1        0.0538
     30 C         141.5502  136.9298  155.0603 C.ar    1  UNL1        0.0963
     31 C         138.6960  140.2103  156.8577 C.3     1  UNL1        0.2525
     32 O         139.0215  138.7953  157.2340 O.3     1  UNL1       -0.4700
@<TRIPOS>BOND
     1    31    32    1
     2    32    19    1
     3    19    20   ar
     4    20    21   ar
     5    21     1    1
     6     1     2   ar
     7     2     3   ar
     8     3     6    1
     9     6     7    1
    10     7     8    1
    11     9     8    1
    12     9    10    1
    13    10    11    1
    14    11    12    1
    15    12    13    1
    16    14    13    1
    17    14    15    1
    18    15    16   am
    19    16    17    2
    20     3     4   ar
    21     4     5   ar
    22    21    22   ar
    23    22    23   ar
    24    23    24   ar
    25    24    25    1
    26    25    26   ar
    27    26    27   ar
    28    27    28   ar
    29    28    29    1
    30    28    30   ar
    31    24    19   ar
    32    30    25   ar
    33     5     1   ar
    34    16     6    1
    35    14     9    1
    36    15    18    1
@<TRIPOS>MOLECULE
*****
 32 36 0 0 0
SMALL
GASTEIGER

@<TRIPOS>ATOM
      1 C         142.7615  138.9147  160.9713 C.ar    1  UNL1        0.1233
      2 C         142.1785  137.8784  160.0568 C.ar    1  UNL1        0.1180
      3 N         142.7935  138.0583  158.7005 N.ar    1  UNL1       -0.2233
      4 N         143.7566  139.2058  158.7769 N.ar    1  UNL1       -0.0634
      5 N         143.7368  139.7351  160.1802 N.ar    1  UNL1       -0.1287
      6 C         142.4974  137.2353  157.4820 C.3     1  UNL1        0.1825
      7 C         143.1428  135.8819  157.4382 C.3     1  UNL1        0.0339
      8 C         143.0452  134.8334  156.3699 C.3     1  UNL1        0.0041
      9 C         142.2782  134.8793  155.0816 C.3     1  UNL1        0.0181
     10 C         142.4513  133.6137  154.2954 C.3     1  UNL1        0.0016
     11 C         141.7654  133.4538  152.9710 C.3     1  UNL1        0.0001
     12 C         140.9066  134.5596  152.4328 C.3     1  UNL1        0.0017
     13 C         140.7336  135.8252  153.2190 C.3     1  UNL1        0.0196
     14 C         141.4194  135.9851  154.5434 C.3     1  UNL1        0.0716
     15 N         141.1154  137.3180  155.1606 N.am    1  UNL1       -0.3044
     16 C         141.5951  137.8745  156.4684 C.2     1  UNL1        0.2449
     17 O         141.1083  139.2521  156.8073 O.2     1  UNL1       -0.2730
     18 H         140.5226  137.9054  154.6383 H       1  UNL1        0.1494
     19 C         142.1960  140.6408  164.4998 C.ar    1  UNL1        0.1547
     20 C         142.5298  140.4572  163.0490 C.ar    1  UNL1        0.0400
     21 C         142.4277  139.0983  162.4221 C.ar    1  UNL1        0.0241
     22 C         141.9919  137.9231  163.2460 C.ar    1  UNL1        0.0033
     23 C         141.6581  138.1067  164.6968 C.ar    1  UNL1        0.0207
     24 C         141.7602  139.4655  165.3237 C.ar    1  UNL1        0.0994
     25 N         141.4264  139.6491  166.7746 N.ar    1  UNL1       -0.2839
     26 C         142.3800  139.5064  167.9236 C.ar    1  UNL1        0.1826
     27 N         141.6233  139.7767  169.1902 N.ar    1  UNL1       -0.2280
     28 C         140.2021  140.0866  168.8241 C.ar    1  UNL1        0.0786
     29 C         139.0967  140.4173  169.7825 C.3     1  UNL1        0.0538
     30 C         140.0804  140.0077  167.3311 C.ar    1  UNL1        0.0963
     31 C         143.5832  142.4365  165.7652 C.3     1  UNL1        0.2525
     32 O         142.2981  141.9997  165.1267 O.3     1  UNL1       -0.4700
@<TRIPOS>BOND
     1    31    32    1
     2    32    19    1
     3    19    20   ar
     4    20    21   ar
     5    21     1    1
     6     1     2   ar
     7     2     3   ar
     8     3     6    1
     9     6     7    1
    10     7     8    1
    11     9     8    1
    12     9    10    1
    13    10    11    1
    14    11    12    1
    15    12    13    1
    16    14    13    1
    17    14    15    1
    18    15    16   am
    19    16    17    2
    20     3     4   ar
    21     4     5   ar
    22    21    22   ar
    23    22    23   ar
    24    23    24   ar
    25    24    25    1
    26    25    26   ar
    27    26    27   ar
    28    27    28   ar
    29    28    29    1
    30    28    30   ar
    31    24    19   ar
    32    30    25   ar
    33     5     1   ar
    34    16     6    1
    35    14     9    1
    36    15    18    1
@<TRIPOS>MOLECULE
*****
 32 36 0 0 0
SMALL
GASTEIGER

@<TRIPOS>ATOM
      1 C         139.3611  139.7147  161.5718 C.ar    1  UNL1        0.1233
      2 C         140.1003  139.9082  162.8626 C.ar    1  UNL1        0.1180
      3 N         139.1389  140.4693  163.8679 N.ar    1  UNL1       -0.2233
      4 N         137.8053  140.6226  163.1985 N.ar    1  UNL1       -0.0634
      5 N         137.9426  140.1563  161.7794 N.ar    1  UNL1       -0.1287
      6 C         139.4553  140.8162  165.2925 C.3     1  UNL1        0.1825
      7 C         139.9558  142.2107  165.5270 C.3     1  UNL1        0.0339
      8 C         140.3541  142.8561  166.8212 C.3     1  UNL1        0.0041
      9 C         140.3502  142.2665  168.2005 C.3     1  UNL1        0.0181
     10 C         140.8258  143.2573  169.2213 C.3     1  UNL1        0.0016
     11 C         140.8983  142.8674  170.6679 C.3     1  UNL1        0.0001
     12 C         140.4952  141.4867  171.0936 C.3     1  UNL1        0.0017
     13 C         140.0196  140.4959  170.0728 C.3     1  UNL1        0.0196
     14 C         139.9471  140.8859  168.6262 C.3     1  UNL1        0.0716
     15 N         139.4483  139.7538  167.7778 N.am    1  UNL1       -0.3044
     16 C         139.2295  139.7228  166.2942 C.2     1  UNL1        0.2449
     17 O         138.7170  138.4271  165.7389 O.2     1  UNL1       -0.2730
     18 H         139.2366  138.9210  168.2583 H       1  UNL1        0.1494
     19 C         139.6833  138.6023  157.7760 C.ar    1  UNL1        0.1547
     20 C         139.1055  139.1425  159.0504 C.ar    1  UNL1        0.0400
     21 C         139.9388  139.1745  160.2973 C.ar    1  UNL1        0.0241
     22 C         141.3498  138.6663  160.2697 C.ar    1  UNL1        0.0033
     23 C         141.9275  138.1261  158.9952 C.ar    1  UNL1        0.0207
     24 C         141.0943  138.0941  157.7484 C.ar    1  UNL1        0.0994
     25 N         141.6721  137.5539  156.4738 N.ar    1  UNL1       -0.2839
     26 C         142.6092  138.2786  155.5537 C.ar    1  UNL1        0.1826
     27 N         142.9304  137.3667  154.4070 N.ar    1  UNL1       -0.2280
     28 C         142.1919  136.0784  154.6182 C.ar    1  UNL1        0.0786
     29 C         142.2251  134.8840  153.7113 C.3     1  UNL1        0.0538
     30 C         141.4141  136.1940  155.8956 C.ar    1  UNL1        0.0963
     31 C         138.8654  139.7371  155.5866 C.3     1  UNL1        0.2525
     32 O         138.8500  138.5704  156.5291 O.3     1  UNL1       -0.4700
@<TRIPOS>BOND
     1    31    32    1
     2    32    19    1
     3    19    20   ar
     4    20    21   ar
     5    21     1    1
     6     1     2   ar
     7     2     3   ar
     8     3     6    1
     9     6     7    1
    10     7     8    1
    11     9     8    1
    12     9    10    1
    13    10    11    1
    14    11    12    1
    15    12    13    1
    16    14    13    1
    17    14    15    1
    18    15    16   am
    19    16    17    2
    20     3     4   ar
    21     4     5   ar
    22    21    22   ar
    23    22    23   ar
    24    23    24   ar
    25    24    25    1
    26    25    26   ar
    27    26    27   ar
    28    27    28   ar
    29    28    29    1
    30    28    30   ar
    31    24    19   ar
    32    30    25   ar
    33     5     1   ar
    34    16     6    1
    35    14     9    1
    36    15    18    1
@<TRIPOS>MOLECULE
*****
 32 36 0 0 0
SMALL
GASTEIGER

@<TRIPOS>ATOM
      1 C         141.7940  138.6143  161.7402 C.ar    1  UNL1        0.1233
      2 C         141.9102  139.4548  162.9771 C.ar    1  UNL1        0.1180
      3 N         141.4514  138.6300  164.1430 N.ar    1  UNL1       -0.2233
      4 N         141.0517  137.2796  163.6266 N.ar    1  UNL1       -0.0634
      5 N         141.2634  137.2699  162.1416 N.ar    1  UNL1       -0.1287
      6 C         141.4012  139.0770  165.5739 C.3     1  UNL1        0.1825
      7 C         140.0626  139.5451  166.0629 C.3     1  UNL1        0.0339
      8 C         139.6885  140.0486  167.4254 C.3     1  UNL1        0.0041
      9 C         140.5605  140.2085  168.6355 C.3     1  UNL1        0.0181
     10 C         139.7862  140.7477  169.8015 C.3     1  UNL1        0.0016
     11 C         140.4735  140.9827  171.1139 C.3     1  UNL1        0.0001
     12 C         141.9350  140.6785  171.2603 C.3     1  UNL1        0.0017
     13 C         142.7093  140.1392  170.0942 C.3     1  UNL1        0.0196
     14 C         142.0220  139.9042  168.7818 C.3     1  UNL1        0.0716
     15 N         142.9724  139.3650  167.7543 N.am    1  UNL1       -0.3044
     16 C         142.6963  138.9968  166.3266 C.2     1  UNL1        0.2449
     17 O         143.8702  138.4803  165.5489 O.2     1  UNL1       -0.2730
     18 H         143.9003  139.2356  168.0569 H       1  UNL1        0.1494
     19 C         142.9452  138.4537  157.9457 C.ar    1  UNL1        0.1547
     20 C         142.5928  138.0251  159.3392 C.ar    1  UNL1        0.0400
     21 C         142.1465  139.0429  160.3466 C.ar    1  UNL1        0.0241
     22 C         142.0526  140.4892  159.9605 C.ar    1  UNL1        0.0033
     23 C         142.4051  140.9178  158.5669 C.ar    1  UNL1        0.0207
     24 C         142.8514  139.9001  157.5596 C.ar    1  UNL1        0.0994
     25 N         143.2039  140.3288  156.1659 N.ar    1  UNL1       -0.2839
     26 C         142.2329  140.6090  155.0575 C.ar    1  UNL1        0.1826
     27 N         143.0181  141.0058  153.8427 N.ar    1  UNL1       -0.2280
     28 C         144.4744  140.9709  154.2003 C.ar    1  UNL1        0.0786
     29 C         145.6156  141.2971  153.2831 C.3     1  UNL1        0.0538
     30 C         144.5892  140.5524  155.6361 C.ar    1  UNL1        0.0963
     31 C         142.7502  136.0803  156.9070 C.3     1  UNL1        0.2525
     32 O         143.3915  137.4359  156.9383 O.3     1  UNL1       -0.4700
@<TRIPOS>BOND
     1    31    32    1
     2    32    19    1
     3    19    20   ar
     4    20    21   ar
     5    21     1    1
     6     1     2   ar
     7     2     3   ar
     8     3     6    1
     9     6     7    1
    10     7     8    1
    11     9     8    1
    12     9    10    1
    13    10    11    1
    14    11    12    1
    15    12    13    1
    16    14    13    1
    17    14    15    1
    18    15    16   am
    19    16    17    2
    20     3     4   ar
    21     4     5   ar
    22    21    22   ar
    23    22    23   ar
    24    23    24   ar
    25    24    25    1
    26    25    26   ar
    27    26    27   ar
    28    27    28   ar
    29    28    29    1
    30    28    30   ar
    31    24    19   ar
    32    30    25   ar
    33     5     1   ar
    34    16     6    1
    35    14     9    1
    36    15    18    1
@<TRIPOS>MOLECULE
*****
 32 36 0 0 0
SMALL
GASTEIGER

@<TRIPOS>ATOM
      1 C         140.5032  144.7089  162.5119 C.ar    1  UNL1        0.1233
      2 C         141.1423  144.4380  161.1822 C.ar    1  UNL1        0.1180
      3 N         140.5248  145.3616  160.1743 N.ar    1  UNL1       -0.2233
      4 N         139.5041  146.2033  160.8812 N.ar    1  UNL1       -0.0634
      5 N         139.4907  145.7998  162.3259 N.ar    1  UNL1       -0.1287
      6 C         140.8678  145.4313  158.7158 C.3     1  UNL1        0.1825
      7 C         139.9019  146.1910  157.8556 C.3     1  UNL1        0.0339
      8 C         139.9610  146.4391  156.3775 C.3     1  UNL1        0.0041
      9 C         141.0006  145.9888  155.3943 C.3     1  UNL1        0.0181
     10 C         140.6791  146.4540  154.0051 C.3     1  UNL1        0.0016
     11 C         141.5947  146.1096  152.8681 C.3     1  UNL1        0.0001
     12 C         142.8320  145.2999  153.1203 C.3     1  UNL1        0.0017
     13 C         143.1536  144.8348  154.5096 C.3     1  UNL1        0.0196
     14 C         142.2379  145.1792  155.6466 C.3     1  UNL1        0.0716
     15 N         142.7411  144.6199  156.9443 N.am    1  UNL1       -0.3044
     16 C         142.1315  144.7321  158.3102 C.2     1  UNL1        0.2449
     17 O         142.8849  144.0557  159.4168 O.2     1  UNL1       -0.2730
     18 H         143.5829  144.1121  156.8927 H       1  UNL1        0.1494
     19 C         142.5238  142.7964  165.3419 C.ar    1  UNL1        0.1547
     20 C         142.2063  143.4940  164.0526 C.ar    1  UNL1        0.0400
     21 C         140.8209  144.0112  163.8012 C.ar    1  UNL1        0.0241
     22 C         139.7531  143.8307  164.8391 C.ar    1  UNL1        0.0033
     23 C         140.0707  143.1331  166.1284 C.ar    1  UNL1        0.0207
     24 C         141.4561  142.6159  166.3798 C.ar    1  UNL1        0.0994
     25 N         141.7737  141.9182  167.6692 N.ar    1  UNL1       -0.2839
     26 C         141.9410  142.5732  169.0082 C.ar    1  UNL1        0.1826
     27 N         142.2504  141.5028  170.0124 N.ar    1  UNL1       -0.2280
     28 C         142.2744  140.1863  169.2941 C.ar    1  UNL1        0.0786
     29 C         142.5454  138.8480  169.9150 C.3     1  UNL1        0.0538
     30 C         141.9797  140.4430  167.8459 C.ar    1  UNL1        0.0963
     31 C         144.9618  142.4079  164.5325 C.3     1  UNL1        0.2525
     32 O         143.9092  142.2792  165.5933 O.3     1  UNL1       -0.4700
@<TRIPOS>BOND
     1    31    32    1
     2    32    19    1
     3    19    20   ar
     4    20    21   ar
     5    21     1    1
     6     1     2   ar
     7     2     3   ar
     8     3     6    1
     9     6     7    1
    10     7     8    1
    11     9     8    1
    12     9    10    1
    13    10    11    1
    14    11    12    1
    15    12    13    1
    16    14    13    1
    17    14    15    1
    18    15    16   am
    19    16    17    2
    20     3     4   ar
    21     4     5   ar
    22    21    22   ar
    23    22    23   ar
    24    23    24   ar
    25    24    25    1
    26    25    26   ar
    27    26    27   ar
    28    27    28   ar
    29    28    29    1
    30    28    30   ar
    31    24    19   ar
    32    30    25   ar
    33     5     1   ar
    34    16     6    1
    35    14     9    1
    36    15    18    1
@<TRIPOS>MOLECULE
*****
 32 36 0 0 0
SMALL
GASTEIGER

@<TRIPOS>ATOM
      1 C         139.9150  138.7904  161.6605 C.ar    1  UNL1        0.1233
      2 C         139.9767  139.6206  162.9083 C.ar    1  UNL1        0.1180
      3 N         140.4467  138.7402  164.0281 N.ar    1  UNL1       -0.2233
      4 N         140.6755  137.3659  163.4724 N.ar    1  UNL1       -0.0634
      5 N         140.3469  137.3969  162.0092 N.ar    1  UNL1       -0.1287
      6 C         140.6518  139.1604  165.4534 C.3     1  UNL1        0.1825
      7 C         142.0794  139.3146  165.8873 C.3     1  UNL1        0.0339
      8 C         142.6100  139.7173  167.2313 C.3     1  UNL1        0.0041
      9 C         141.8441  140.0653  168.4733 C.3     1  UNL1        0.0181
     10 C         142.7646  140.4135  169.6052 C.3     1  UNL1        0.0016
     11 C         142.1995  140.7930  170.9418 C.3     1  UNL1        0.0001
     12 C         140.7138  140.8243  171.1465 C.3     1  UNL1        0.0017
     13 C         139.7933  140.4760  170.0145 C.3     1  UNL1        0.0196
     14 C         140.3585  140.0965  168.6779 C.3     1  UNL1        0.0716
     15 N         139.2718  139.7875  167.6912 N.am    1  UNL1       -0.3044
     16 C         139.4023  139.3709  166.2561 C.2     1  UNL1        0.2449
     17 O         138.1129  139.1333  165.5275 O.2     1  UNL1       -0.2730
     18 H         138.3511  139.8688  168.0303 H       1  UNL1        0.1494
     19 C         139.5844  139.0572  157.7147 C.ar    1  UNL1        0.1547
     20 C         140.0043  138.5780  159.0726 C.ar    1  UNL1        0.0400
     21 C         139.4952  139.2696  160.3025 C.ar    1  UNL1        0.0241
     22 C         138.5662  140.4403  160.1744 C.ar    1  UNL1        0.0033
     23 C         138.1464  140.9195  158.8165 C.ar    1  UNL1        0.0207
     24 C         138.6554  140.2280  157.5867 C.ar    1  UNL1        0.0994
     25 N         138.2355  140.7072  156.2286 N.ar    1  UNL1       -0.2839
     26 C         139.0678  141.5250  155.2860 C.ar    1  UNL1        0.1826
     27 N         138.2562  141.7760  154.0497 N.ar    1  UNL1       -0.2280
     28 C         136.9225  141.1133  154.2283 C.ar    1  UNL1        0.0786
     29 C         135.7988  141.1115  153.2346 C.3     1  UNL1        0.0538
     30 C         136.9097  140.4528  155.5749 C.ar    1  UNL1        0.0963
     31 C         139.3063  137.2439  155.8750 C.3     1  UNL1        0.2525
     32 O         140.0935  138.3657  156.4848 O.3     1  UNL1       -0.4700
@<TRIPOS>BOND
     1    31    32    1
     2    32    19    1
     3    19    20   ar
     4    20    21   ar
     5    21     1    1
     6     1     2   ar
     7     2     3   ar
     8     3     6    1
     9     6     7    1
    10     7     8    1
    11     9     8    1
    12     9    10    1
    13    10    11    1
    14    11    12    1
    15    12    13    1
    16    14    13    1
    17    14    15    1
    18    15    16   am
    19    16    17    2
    20     3     4   ar
    21     4     5   ar
    22    21    22   ar
    23    22    23   ar
    24    23    24   ar
    25    24    25    1
    26    25    26   ar
    27    26    27   ar
    28    27    28   ar
    29    28    29    1
    30    28    30   ar
    31    24    19   ar
    32    30    25   ar
    33     5     1   ar
    34    16     6    1
    35    14     9    1
    36    15    18    1
@<TRIPOS>MOLECULE
*****
 32 36 0 0 0
SMALL
GASTEIGER

@<TRIPOS>ATOM
      1 C         140.3643  142.0019  160.5505 C.ar    1  UNL1        0.1233
      2 C         140.5254  142.2189  162.0260 C.ar    1  UNL1        0.1180
      3 N         140.5990  140.8744  162.6870 N.ar    1  UNL1       -0.2233
      4 N         140.4834  139.8265  161.6200 N.ar    1  UNL1       -0.0634
      5 N         140.3384  140.5233  160.2996 N.ar    1  UNL1       -0.1287
      6 C         140.7600  140.6221  164.1568 C.3     1  UNL1        0.1825
      7 C         142.1356  140.2223  164.6017 C.3     1  UNL1        0.0339
      8 C         142.6149  139.9046  165.9871 C.3     1  UNL1        0.0041
      9 C         141.8372  139.9084  167.2698 C.3     1  UNL1        0.0181
     10 C         142.7012  139.5287  168.4357 C.3     1  UNL1        0.0016
     11 C         142.1159  139.4715  169.8156 C.3     1  UNL1        0.0001
     12 C         140.6667  139.7938  170.0296 C.3     1  UNL1        0.0017
     13 C         139.8027  140.1734  168.8637 C.3     1  UNL1        0.0196
     14 C         140.3879  140.2307  167.4838 C.3     1  UNL1        0.0716
     15 N         139.3585  140.6289  166.4680 N.am    1  UNL1       -0.3044
     16 C         139.5240  140.8031  164.9874 C.2     1  UNL1        0.2449
     17 O         138.2907  141.2124  164.2383 O.2     1  UNL1       -0.2730
     18 H         138.4547  140.7983  166.8196 H       1  UNL1        0.1494
     19 C         139.3667  143.8893  157.2051 C.ar    1  UNL1        0.1547
     20 C         139.4816  142.8160  158.2466 C.ar    1  UNL1        0.0400
     21 C         140.2494  143.0751  159.5089 C.ar    1  UNL1        0.0241
     22 C         140.9022  144.4074  159.7296 C.ar    1  UNL1        0.0033
     23 C         140.7873  145.4806  158.6880 C.ar    1  UNL1        0.0207
     24 C         140.0195  145.2216  157.4258 C.ar    1  UNL1        0.0994
     25 N         139.9046  146.2949  156.3841 N.ar    1  UNL1       -0.2839
     26 C         139.0076  147.4953  156.4503 C.ar    1  UNL1        0.1826
     27 N         139.2152  148.2984  155.2005 N.ar    1  UNL1       -0.2280
     28 C         140.2404  147.5944  154.3620 C.ar    1  UNL1        0.0786
     29 C         140.7501  148.0488  153.0264 C.3     1  UNL1        0.0538
     30 C         140.6665  146.3561  155.0935 C.ar    1  UNL1        0.0963
     31 C         137.1527  143.2380  156.0117 C.3     1  UNL1        0.2525
     32 O         138.5989  143.6302  155.9428 O.3     1  UNL1       -0.4700
@<TRIPOS>BOND
     1    31    32    1
     2    32    19    1
     3    19    20   ar
     4    20    21   ar
     5    21     1    1
     6     1     2   ar
     7     2     3   ar
     8     3     6    1
     9     6     7    1
    10     7     8    1
    11     9     8    1
    12     9    10    1
    13    10    11    1
    14    11    12    1
    15    12    13    1
    16    14    13    1
    17    14    15    1
    18    15    16   am
    19    16    17    2
    20     3     4   ar
    21     4     5   ar
    22    21    22   ar
    23    22    23   ar
    24    23    24   ar
    25    24    25    1
    26    25    26   ar
    27    26    27   ar
    28    27    28   ar
    29    28    29    1
    30    28    30   ar
    31    24    19   ar
    32    30    25   ar
    33     5     1   ar
    34    16     6    1
    35    14     9    1
    36    15    18    1
