@<TRIPOS>MOLECULE
*****
 28 30 0 0 0
SMALL
GASTEIGER

@<TRIPOS>ATOM
      1 C         138.5123  139.2070  167.2189 C.ar    1  UNL1        0.0621
      2 C         139.7872  139.9936  167.2940 C.ar    1  UNL1        0.0294
      3 C         140.2374  140.5690  168.6041 C.ar    1  UNL1        0.0519
      4 C         139.4127  140.3577  169.8390 C.ar    1  UNL1        0.0486
      5 C         138.1377  139.5711  169.7639 C.ar    1  UNL1        0.1294
      6 N         137.6875  138.9958  168.4539 N.ar    1  UNL1       -0.2351
      7 N         141.5125  141.3556  168.6792 N.pl3   1  UNL1       -0.3027
      8 C         142.2271  141.7476  167.4200 C.3     1  UNL1        0.1231
      9 C         143.5021  142.5343  167.4951 C.3     1  UNL1        0.1636
     10 O         144.0625  142.9289  168.8294 O.3     1  UNL1       -0.3501
     11 C         143.3478  142.5369  170.0886 C.3     1  UNL1        0.1636
     12 C         142.0728  141.7502  170.0134 C.3     1  UNL1        0.1231
     13 N         137.3130  139.3599  170.9989 N.pl3   1  UNL1       -0.3160
     14 H         137.6007  139.7502  171.8557 H       1  UNL1        0.1483
     15 C         136.0499  138.5540  170.9284 C.3     1  UNL1        0.1207
     16 C         135.5193  137.8819  172.1601 C.3     1  UNL1        0.1634
     17 O         135.8874  136.4580  172.4551 O.3     1  UNL1       -0.3493
     18 C         135.9919  135.9894  173.8762 C.3     1  UNL1        0.1742
     19 C         138.0620  138.6316  165.9088 C.3     1  UNL1        0.0556
     20 C         138.8064  137.4806  165.2998 C.3     1  UNL1        0.0916
     21 C         142.3252  138.3278  163.8977 C.ar    1  UNL1        0.1377
     22 O         141.3619  138.2210  165.0426 O.2     1  UNL1       -0.4430
     23 C         140.0515  137.7307  164.5016 C.ar    1  UNL1        0.2053
     24 N         140.2049  137.5344  163.0225 N.ar    1  UNL1       -0.2168
     25 C         141.6101  137.9034  162.6492 C.ar    1  UNL1        0.0923
     26 C         142.1971  137.8563  161.2697 C.3     1  UNL1        0.0551
     27 C         144.0795  140.1249  164.5630 C.3     1  UNL1        0.0085
     28 C         143.7528  138.7795  163.9858 C.3     1  UNL1        0.0658
@<TRIPOS>BOND
     1    27    28    1
     2    28    21    1
     3    21    22   ar
     4    22    23   ar
     5    23    20    1
     6    20    19    1
     7    19     1    1
     8     1     2   ar
     9     2     3   ar
    10     3     7    1
    11     7     8    1
    12     8     9    1
    13     9    10    1
    14    10    11    1
    15    11    12    1
    16     3     4   ar
    17     4     5   ar
    18     5    13    1
    19    13    15    1
    20    15    16    1
    21    16    17    1
    22    17    18    1
    23     5     6   ar
    24    23    24   ar
    25    24    25   ar
    26    25    26    1
    27    25    21   ar
    28     6     1   ar
    29    12     7    1
    30    13    14    1
@<TRIPOS>MOLECULE
*****
 28 30 0 0 0
SMALL
GASTEIGER

@<TRIPOS>ATOM
      1 C         143.6966  142.0715  165.7572 C.ar    1  UNL1        0.0621
      2 C         143.0442  142.3824  167.0716 C.ar    1  UNL1        0.0294
      3 C         142.3350  141.3009  167.8313 C.ar    1  UNL1        0.0519
      4 C         142.2781  139.9084  167.2765 C.ar    1  UNL1        0.0486
      5 C         142.9305  139.5975  165.9621 C.ar    1  UNL1        0.1294
      6 N         143.6397  140.6791  165.2025 N.ar    1  UNL1       -0.2351
      7 N         141.6825  141.6117  169.1457 N.pl3   1  UNL1       -0.3027
      8 C         140.5981  142.6455  169.2188 C.3     1  UNL1        0.1231
      9 C         139.9457  142.9564  170.5332 C.3     1  UNL1        0.1636
     10 O         140.3776  142.2335  171.7746 O.3     1  UNL1       -0.3501
     11 C         141.4621  141.1997  171.7015 C.3     1  UNL1        0.1636
     12 C         142.1145  140.8889  170.3870 C.3     1  UNL1        0.1231
     13 N         142.8736  138.2050  165.4073 N.pl3   1  UNL1       -0.3160
     14 H         143.6413  137.5989  165.5190 H       1  UNL1        0.1483
     15 C         141.6470  137.7360  164.6825 C.3     1  UNL1        0.1207
     16 C         141.5948  137.7891  163.1843 C.3     1  UNL1        0.1634
     17 O         140.4326  137.1861  162.4524 O.3     1  UNL1       -0.3493
     18 C         139.0912  137.8562  162.4934 C.3     1  UNL1        0.1742
     19 C         144.4060  143.1531  164.9975 C.3     1  UNL1        0.0556
     20 C         143.8946  143.5860  163.6555 C.3     1  UNL1        0.0916
     21 C         140.1984  144.7255  163.9805 C.ar    1  UNL1        0.1377
     22 O         141.3890  143.9759  164.5010 O.2     1  UNL1       -0.4430
     23 C         142.5158  144.1629  163.5286 C.ar    1  UNL1        0.2053
     24 N         142.0217  145.0280  162.4073 N.ar    1  UNL1       -0.2168
     25 C         140.5895  145.3757  162.6865 C.ar    1  UNL1        0.0923
     26 C         139.7040  146.2245  161.8233 C.3     1  UNL1        0.0551
     27 C         137.9177  143.6386  164.5860 C.3     1  UNL1        0.0085
     28 C         138.8531  144.8100  164.6384 C.3     1  UNL1        0.0658
@<TRIPOS>BOND
     1    27    28    1
     2    28    21    1
     3    21    22   ar
     4    22    23   ar
     5    23    20    1
     6    20    19    1
     7    19     1    1
     8     1     2   ar
     9     2     3   ar
    10     3     7    1
    11     7     8    1
    12     8     9    1
    13     9    10    1
    14    10    11    1
    15    11    12    1
    16     3     4   ar
    17     4     5   ar
    18     5    13    1
    19    13    15    1
    20    15    16    1
    21    16    17    1
    22    17    18    1
    23     5     6   ar
    24    23    24   ar
    25    24    25   ar
    26    25    26    1
    27    25    21   ar
    28     6     1   ar
    29    12     7    1
    30    13    14    1
@<TRIPOS>MOLECULE
*****
 28 30 0 0 0
SMALL
GASTEIGER

@<TRIPOS>ATOM
      1 C         140.3527  143.2369  165.3310 C.ar    1  UNL1        0.0621
      2 C         140.3997  142.8175  166.7704 C.ar    1  UNL1        0.0294
      3 C         141.6534  142.2196  167.3368 C.ar    1  UNL1        0.0519
      4 C         142.8600  142.0412  166.4638 C.ar    1  UNL1        0.0486
      5 C         142.8130  142.4605  165.0244 C.ar    1  UNL1        0.1294
      6 N         141.5593  143.0584  164.4580 N.ar    1  UNL1       -0.2351
      7 N         141.7005  141.8002  168.7762 N.pl3   1  UNL1       -0.3027
      8 C         140.7639  142.4217  169.7695 C.3     1  UNL1        0.1231
      9 C         140.8109  142.0024  171.2089 C.3     1  UNL1        0.1636
     10 O         141.7946  140.9615  171.6551 O.3     1  UNL1       -0.3501
     11 C         142.7312  140.3400  170.6618 C.3     1  UNL1        0.1636
     12 C         142.6841  140.7594  169.2224 C.3     1  UNL1        0.1231
     13 N         144.0197  142.2821  164.1514 N.pl3   1  UNL1       -0.3160
     14 H         144.6563  143.0237  164.0340 H       1  UNL1        0.1483
     15 C         144.2563  140.9736  163.4572 C.3     1  UNL1        0.1207
     16 C         144.6738  139.7696  164.2485 C.3     1  UNL1        0.1634
     17 O         143.6375  138.8193  164.7711 O.3     1  UNL1       -0.3493
     18 C         143.7002  138.3499  166.1944 C.3     1  UNL1        0.1742
     19 C         139.0990  143.8348  164.7646 C.3     1  UNL1        0.0556
     20 C         137.8922  142.9728  164.5395 C.3     1  UNL1        0.0916
     21 C         138.5579  139.1572  164.2864 C.ar    1  UNL1        0.1377
     22 O         138.5456  140.4359  165.0707 O.2     1  UNL1       -0.4430
     23 C         138.0603  141.5297  164.1662 C.ar    1  UNL1        0.2053
     24 N         137.7727  140.9272  162.8230 N.ar    1  UNL1       -0.2168
     25 C         138.0802  139.4609  162.8972 C.ar    1  UNL1        0.0923
     26 C         137.9355  138.4721  161.7788 C.3     1  UNL1        0.0551
     27 C         140.3887  137.3444  164.6205 C.3     1  UNL1        0.0085
     28 C         138.9747  137.8113  164.8008 C.3     1  UNL1        0.0658
@<TRIPOS>BOND
     1    27    28    1
     2    28    21    1
     3    21    22   ar
     4    22    23   ar
     5    23    20    1
     6    20    19    1
     7    19     1    1
     8     1     2   ar
     9     2     3   ar
    10     3     7    1
    11     7     8    1
    12     8     9    1
    13     9    10    1
    14    10    11    1
    15    11    12    1
    16     3     4   ar
    17     4     5   ar
    18     5    13    1
    19    13    15    1
    20    15    16    1
    21    16    17    1
    22    17    18    1
    23     5     6   ar
    24    23    24   ar
    25    24    25   ar
    26    25    26    1
    27    25    21   ar
    28     6     1   ar
    29    12     7    1
    30    13    14    1
@<TRIPOS>MOLECULE
*****
 28 30 0 0 0
SMALL
GASTEIGER

@<TRIPOS>ATOM
      1 C         143.4370  142.2299  165.5228 C.ar    1  UNL1        0.0621
      2 C         142.9655  142.4301  166.9326 C.ar    1  UNL1        0.0294
      3 C         141.9392  141.5062  167.5185 C.ar    1  UNL1        0.0519
      4 C         141.3846  140.3821  166.6945 C.ar    1  UNL1        0.0486
      5 C         141.8561  140.1820  165.2848 C.ar    1  UNL1        0.1294
      6 N         142.8824  141.1058  164.6989 N.ar    1  UNL1       -0.2351
      7 N         141.4676  141.7064  168.9283 N.pl3   1  UNL1       -0.3027
      8 C         140.3898  142.7069  169.2237 C.3     1  UNL1        0.1231
      9 C         139.9182  142.9071  170.6334 C.3     1  UNL1        0.1636
     10 O         140.5244  142.1067  171.7479 O.3     1  UNL1       -0.3501
     11 C         141.6022  141.1061  171.4525 C.3     1  UNL1        0.1636
     12 C         142.0738  140.9060  170.0427 C.3     1  UNL1        0.1231
     13 N         141.3015  139.0579  164.4608 N.pl3   1  UNL1       -0.3160
     14 H         141.8762  138.2971  164.2158 H       1  UNL1        0.1483
     15 C         139.8712  139.0931  164.0103 C.3     1  UNL1        0.1207
     16 C         138.9789  137.9121  164.2536 C.3     1  UNL1        0.1634
     17 O         138.5145  137.5971  165.6448 O.3     1  UNL1       -0.3493
     18 C         138.0004  138.6933  166.5301 C.3     1  UNL1        0.1742
     19 C         144.4633  143.1538  164.9369 C.3     1  UNL1        0.0556
     20 C         144.0598  144.5178  164.4609 C.3     1  UNL1        0.0916
     21 C         140.7048  145.0738  162.5899 C.ar    1  UNL1        0.1377
     22 O         141.5081  145.0353  163.8562 O.2     1  UNL1       -0.4430
     23 C         142.9184  144.6694  163.4995 C.ar    1  UNL1        0.2053
     24 N         142.9868  144.4818  162.0129 N.ar    1  UNL1       -0.2168
     25 C         141.6188  144.7317  161.4507 C.ar    1  UNL1        0.0923
     26 C         141.2326  144.6533  160.0035 C.3     1  UNL1        0.0551
     27 C         138.2205  144.4201  162.9785 C.3     1  UNL1        0.0085
     28 C         139.2442  145.3976  162.4818 C.3     1  UNL1        0.0658
@<TRIPOS>BOND
     1    27    28    1
     2    28    21    1
     3    21    22   ar
     4    22    23   ar
     5    23    20    1
     6    20    19    1
     7    19     1    1
     8     1     2   ar
     9     2     3   ar
    10     3     7    1
    11     7     8    1
    12     8     9    1
    13     9    10    1
    14    10    11    1
    15    11    12    1
    16     3     4   ar
    17     4     5   ar
    18     5    13    1
    19    13    15    1
    20    15    16    1
    21    16    17    1
    22    17    18    1
    23     5     6   ar
    24    23    24   ar
    25    24    25   ar
    26    25    26    1
    27    25    21   ar
    28     6     1   ar
    29    12     7    1
    30    13    14    1
@<TRIPOS>MOLECULE
*****
 28 30 0 0 0
SMALL
GASTEIGER

@<TRIPOS>ATOM
      1 C         140.1408  144.0460  164.9491 C.ar    1  UNL1        0.0621
      2 C         140.1258  143.0691  166.0872 C.ar    1  UNL1        0.0294
      3 C         141.3769  142.3288  166.4567 C.ar    1  UNL1        0.0519
      4 C         142.6431  142.5654  165.6881 C.ar    1  UNL1        0.0486
      5 C         142.6581  143.5423  164.5500 C.ar    1  UNL1        0.1294
      6 N         141.4070  144.2827  164.1805 N.ar    1  UNL1       -0.2351
      7 N         141.3619  141.3519  167.5949 N.pl3   1  UNL1       -0.3027
      8 C         140.1669  141.2706  168.4978 C.3     1  UNL1        0.1231
      9 C         140.1518  140.2937  169.6359 C.3     1  UNL1        0.1636
     10 O         141.3319  139.3980  169.8712 O.3     1  UNL1       -0.3501
     11 C         142.5269  139.4792  168.9683 C.3     1  UNL1        0.1636
     12 C         142.5419  140.4562  167.8301 C.3     1  UNL1        0.1231
     13 N         143.9243  143.7790  163.7813 N.pl3   1  UNL1       -0.3160
     14 H         144.6883  144.2225  164.2158 H       1  UNL1        0.1483
     15 C         144.0264  143.3398  162.3507 C.3     1  UNL1        0.1207
     16 C         144.9612  142.2295  161.9719 C.3     1  UNL1        0.1634
     17 O         145.8593  141.6193  163.0069 O.3     1  UNL1       -0.3493
     18 C         145.3212  140.5855  163.9512 C.3     1  UNL1        0.1742
     19 C         138.8896  144.7864  164.5796 C.3     1  UNL1        0.0556
     20 C         137.6819  144.0307  164.1104 C.3     1  UNL1        0.0916
     21 C         137.8068  140.9119  161.8032 C.ar    1  UNL1        0.1377
     22 O         137.5571  141.5428  163.1410 O.2     1  UNL1       -0.4430
     23 C         137.8116  143.0156  163.0137 C.ar    1  UNL1        0.2053
     24 N         138.2186  143.2949  161.5973 N.ar    1  UNL1       -0.2168
     25 C         138.2156  141.9948  160.8491 C.ar    1  UNL1        0.0923
     26 C         138.5608  141.8101  159.4012 C.3     1  UNL1        0.0551
     27 C         138.8709  138.5559  161.5441 C.3     1  UNL1        0.0085
     28 C         137.6714  139.4541  161.4768 C.3     1  UNL1        0.0658
@<TRIPOS>BOND
     1    27    28    1
     2    28    21    1
     3    21    22   ar
     4    22    23   ar
     5    23    20    1
     6    20    19    1
     7    19     1    1
     8     1     2   ar
     9     2     3   ar
    10     3     7    1
    11     7     8    1
    12     8     9    1
    13     9    10    1
    14    10    11    1
    15    11    12    1
    16     3     4   ar
    17     4     5   ar
    18     5    13    1
    19    13    15    1
    20    15    16    1
    21    16    17    1
    22    17    18    1
    23     5     6   ar
    24    23    24   ar
    25    24    25   ar
    26    25    26    1
    27    25    21   ar
    28     6     1   ar
    29    12     7    1
    30    13    14    1
@<TRIPOS>MOLECULE
*****
 28 30 0 0 0
SMALL
GASTEIGER

@<TRIPOS>ATOM
      1 C         139.3950  138.1533  162.6470 C.ar    1  UNL1        0.0621
      2 C         139.5360  138.6173  164.0665 C.ar    1  UNL1        0.0294
      3 C         140.8956  138.7118  164.6930 C.ar    1  UNL1        0.0519
      4 C         142.1141  138.3424  163.9002 C.ar    1  UNL1        0.0486
      5 C         141.9731  137.8784  162.4807 C.ar    1  UNL1        0.1294
      6 N         140.6136  137.7839  161.8542 N.ar    1  UNL1       -0.2351
      7 N         141.0366  139.1759  166.1125 N.pl3   1  UNL1       -0.3027
      8 C         139.8315  139.6488  166.8702 C.3     1  UNL1        0.1231
      9 C         139.9725  140.1128  168.2896 C.3     1  UNL1        0.1636
     10 O         141.3187  140.1039  168.9514 O.3     1  UNL1       -0.3501
     11 C         142.5238  139.6309  168.1937 C.3     1  UNL1        0.1636
     12 C         142.3827  139.1669  166.7742 C.3     1  UNL1        0.1231
     13 N         143.1917  137.5090  161.6879 N.pl3   1  UNL1       -0.3160
     14 H         143.5779  136.6072  161.7704 H       1  UNL1        0.1483
     15 C         143.8218  138.5135  160.7693 C.3     1  UNL1        0.1207
     16 C         143.7821  139.9729  161.1134 C.3     1  UNL1        0.1634
     17 O         144.9238  140.5992  161.8580 O.3     1  UNL1       -0.3493
     18 C         144.8132  140.8422  163.3340 C.3     1  UNL1        0.1742
     19 C         138.0354  138.0587  162.0204 C.3     1  UNL1        0.0556
     20 C         137.5157  139.1888  161.1821 C.3     1  UNL1        0.0916
     21 C         137.9438  142.8266  162.4663 C.ar    1  UNL1        0.1377
     22 O         137.2136  141.5162  162.4615 O.2     1  UNL1       -0.4430
     23 C         137.9105  140.6009  161.4989 C.ar    1  UNL1        0.2053
     24 N         139.0712  141.3454  160.9088 N.ar    1  UNL1       -0.2168
     25 C         139.0919  142.7210  161.5066 C.ar    1  UNL1        0.0923
     26 C         140.0860  143.8012  161.1989 C.3     1  UNL1        0.0551
     27 C         138.5069  144.4921  164.3792 C.3     1  UNL1        0.0085
     28 C         137.5883  144.0310  163.2866 C.3     1  UNL1        0.0658
@<TRIPOS>BOND
     1    27    28    1
     2    28    21    1
     3    21    22   ar
     4    22    23   ar
     5    23    20    1
     6    20    19    1
     7    19     1    1
     8     1     2   ar
     9     2     3   ar
    10     3     7    1
    11     7     8    1
    12     8     9    1
    13     9    10    1
    14    10    11    1
    15    11    12    1
    16     3     4   ar
    17     4     5   ar
    18     5    13    1
    19    13    15    1
    20    15    16    1
    21    16    17    1
    22    17    18    1
    23     5     6   ar
    24    23    24   ar
    25    24    25   ar
    26    25    26    1
    27    25    21   ar
    28     6     1   ar
    29    12     7    1
    30    13    14    1
@<TRIPOS>MOLECULE
*****
 28 30 0 0 0
SMALL
GASTEIGER

@<TRIPOS>ATOM
      1 C         143.1345  142.4908  165.0034 C.ar    1  UNL1        0.0621
      2 C         142.5298  142.1319  166.3283 C.ar    1  UNL1        0.0294
      3 C         141.0983  142.4747  166.6168 C.ar    1  UNL1        0.0519
      4 C         140.2715  143.1764  165.5804 C.ar    1  UNL1        0.0486
      5 C         140.8763  143.5353  164.2555 C.ar    1  UNL1        0.1294
      6 N         142.3078  143.1925  163.9670 N.ar    1  UNL1       -0.2351
      7 N         140.4934  142.1158  167.9418 N.pl3   1  UNL1       -0.3027
      8 C         140.5064  143.1090  169.0658 C.3     1  UNL1        0.1231
      9 C         139.9016  142.7502  170.3907 C.3     1  UNL1        0.1636
     10 O         139.2838  141.3981  170.5916 O.3     1  UNL1       -0.3501
     11 C         139.2709  140.4049  169.4676 C.3     1  UNL1        0.1636
     12 C         139.8757  140.7638  168.1426 C.3     1  UNL1        0.1231
     13 N         140.0495  144.2369  163.2191 N.pl3   1  UNL1       -0.3160
     14 H         140.0645  145.2195  163.1599 H       1  UNL1        0.1483
     15 C         139.2000  143.4415  162.2728 C.3     1  UNL1        0.1207
     16 C         137.7399  143.2484  162.5571 C.3     1  UNL1        0.1634
     17 O         137.2897  142.1175  163.4337 O.3     1  UNL1       -0.3493
     18 C         138.0913  140.8511  163.4951 C.3     1  UNL1        0.1742
     19 C         144.5661  142.1480  164.7148 C.3     1  UNL1        0.0556
     20 C         144.9171  140.7995  164.1597 C.3     1  UNL1        0.0916
     21 C         142.0808  138.1637  163.8883 C.ar    1  UNL1        0.1377
     22 O         143.0684  138.9466  164.7019 O.2     1  UNL1       -0.4430
     23 C         143.8297  139.8424  163.7702 C.ar    1  UNL1        0.2053
     24 N         143.3127  139.6132  162.3809 N.ar    1  UNL1       -0.2168
     25 C         142.2319  138.5757  162.4538 C.ar    1  UNL1        0.0923
     26 C         141.4410  138.0436  161.2958 C.3     1  UNL1        0.0551
     27 C         139.7391  137.5718  164.8453 C.3     1  UNL1        0.0085
     28 C         141.1123  137.1473  164.4163 C.3     1  UNL1        0.0658
@<TRIPOS>BOND
     1    27    28    1
     2    28    21    1
     3    21    22   ar
     4    22    23   ar
     5    23    20    1
     6    20    19    1
     7    19     1    1
     8     1     2   ar
     9     2     3   ar
    10     3     7    1
    11     7     8    1
    12     8     9    1
    13     9    10    1
    14    10    11    1
    15    11    12    1
    16     3     4   ar
    17     4     5   ar
    18     5    13    1
    19    13    15    1
    20    15    16    1
    21    16    17    1
    22    17    18    1
    23     5     6   ar
    24    23    24   ar
    25    24    25   ar
    26    25    26    1
    27    25    21   ar
    28     6     1   ar
    29    12     7    1
    30    13    14    1
@<TRIPOS>MOLECULE
*****
 28 30 0 0 0
SMALL
GASTEIGER

@<TRIPOS>ATOM
      1 C         143.6257  142.2115  165.0221 C.ar    1  UNL1        0.0621
      2 C         142.5990  142.8998  164.1725 C.ar    1  UNL1        0.0294
      3 C         141.2671  143.2678  164.7561 C.ar    1  UNL1        0.0519
      4 C         140.9620  142.9475  166.1894 C.ar    1  UNL1        0.0486
      5 C         141.9887  142.2592  167.0390 C.ar    1  UNL1        0.1294
      6 N         143.3206  141.8912  166.4554 N.ar    1  UNL1       -0.2351
      7 N         140.2402  143.9562  163.9064 N.pl3   1  UNL1       -0.3027
      8 C         140.6441  145.0934  163.0156 C.3     1  UNL1        0.1231
      9 C         139.6174  145.7817  162.1660 C.3     1  UNL1        0.1636
     10 O         138.1866  145.3328  162.2071 O.3     1  UNL1       -0.3501
     11 C         137.7828  144.1956  163.0979 C.3     1  UNL1        0.1636
     12 C         138.8096  143.5072  163.9476 C.3     1  UNL1        0.1231
     13 N         141.6836  141.9389  168.4723 N.pl3   1  UNL1       -0.3160
     14 H         142.1249  141.1759  168.9109 H       1  UNL1        0.1483
     15 C         140.7062  142.7811  169.2374 C.3     1  UNL1        0.1207
     16 C         140.2967  142.3819  170.6241 C.3     1  UNL1        0.1634
     17 O         139.8086  140.9886  170.8902 O.3     1  UNL1       -0.3493
     18 C         138.8209  140.3495  169.9596 C.3     1  UNL1        0.1742
     19 C         144.9577  141.8435  164.4385 C.3     1  UNL1        0.0556
     20 C         145.2761  140.4079  164.1428 C.3     1  UNL1        0.0916
     21 C         142.3562  138.0517  163.1486 C.ar    1  UNL1        0.1377
     22 O         143.1379  138.8042  164.1843 O.2     1  UNL1       -0.4430
     23 C         144.2498  139.5315  163.4880 C.ar    1  UNL1        0.2053
     24 N         144.1553  139.2285  162.0220 N.ar    1  UNL1       -0.2168
     25 C         142.9849  138.3140  161.8122 C.ar    1  UNL1        0.0923
     26 C         142.5243  137.7591  160.4970 C.3     1  UNL1        0.0551
     27 C         139.7866  137.6825  163.0440 C.3     1  UNL1        0.0085
     28 C         141.1563  137.1886  163.4043 C.3     1  UNL1        0.0658
@<TRIPOS>BOND
     1    27    28    1
     2    28    21    1
     3    21    22   ar
     4    22    23   ar
     5    23    20    1
     6    20    19    1
     7    19     1    1
     8     1     2   ar
     9     2     3   ar
    10     3     7    1
    11     7     8    1
    12     8     9    1
    13     9    10    1
    14    10    11    1
    15    11    12    1
    16     3     4   ar
    17     4     5   ar
    18     5    13    1
    19    13    15    1
    20    15    16    1
    21    16    17    1
    22    17    18    1
    23     5     6   ar
    24    23    24   ar
    25    24    25   ar
    26    25    26    1
    27    25    21   ar
    28     6     1   ar
    29    12     7    1
    30    13    14    1
@<TRIPOS>MOLECULE
*****
 28 30 0 0 0
SMALL
GASTEIGER

@<TRIPOS>ATOM
      1 C         139.9946  143.6165  165.5052 C.ar    1  UNL1        0.0621
      2 C         141.1085  143.3801  164.5288 C.ar    1  UNL1        0.0294
      3 C         142.3928  142.7589  164.9923 C.ar    1  UNL1        0.0519
      4 C         142.5631  142.3743  166.4321 C.ar    1  UNL1        0.0486
      5 C         141.4493  142.6107  167.4084 C.ar    1  UNL1        0.1294
      6 N         140.1650  143.2319  166.9450 N.ar    1  UNL1       -0.2351
      7 N         143.5068  142.5224  164.0159 N.pl3   1  UNL1       -0.3027
      8 C         143.4389  143.1196  162.6416 C.3     1  UNL1        0.1231
      9 C         144.5527  142.8831  161.6652 C.3     1  UNL1        0.1636
     10 O         145.7346  142.0494  162.0632 O.3     1  UNL1       -0.3501
     11 C         145.8025  141.4523  163.4375 C.3     1  UNL1        0.1636
     12 C         144.6885  141.6888  164.4139 C.3     1  UNL1        0.1231
     13 N         141.6196  142.2261  168.8482 N.pl3   1  UNL1       -0.3160
     14 H         142.2272  141.4910  169.0927 H       1  UNL1        0.1483
     15 C         140.8643  142.9613  169.9154 C.3     1  UNL1        0.1207
     16 C         140.2875  142.2103  171.0787 C.3     1  UNL1        0.1634
     17 O         139.9494  140.7555  170.9390 O.3     1  UNL1       -0.3493
     18 C         138.8752  140.3235  169.9854 C.3     1  UNL1        0.1742
     19 C         138.7103  144.2377  165.0417 C.3     1  UNL1        0.0556
     20 C         137.6910  143.4048  164.3226 C.3     1  UNL1        0.0916
     21 C         138.3034  139.5930  164.7243 C.ar    1  UNL1        0.1377
     22 O         138.1768  140.9685  165.3094 O.2     1  UNL1       -0.4430
     23 C         137.8914  141.9242  164.1890 C.ar    1  UNL1        0.2053
     24 N         137.8416  141.1395  162.9116 N.ar    1  UNL1       -0.2168
     25 C         138.0962  139.6988  163.2424 C.ar    1  UNL1        0.0923
     26 C         138.1366  138.5632  162.2634 C.3     1  UNL1        0.0551
     27 C         137.7669  137.9862  166.6941 C.3     1  UNL1        0.0085
     28 C         138.5873  138.3332  165.4873 C.3     1  UNL1        0.0658
@<TRIPOS>BOND
     1    27    28    1
     2    28    21    1
     3    21    22   ar
     4    22    23   ar
     5    23    20    1
     6    20    19    1
     7    19     1    1
     8     1     2   ar
     9     2     3   ar
    10     3     7    1
    11     7     8    1
    12     8     9    1
    13     9    10    1
    14    10    11    1
    15    11    12    1
    16     3     4   ar
    17     4     5   ar
    18     5    13    1
    19    13    15    1
    20    15    16    1
    21    16    17    1
    22    17    18    1
    23     5     6   ar
    24    23    24   ar
    25    24    25   ar
    26    25    26    1
    27    25    21   ar
    28     6     1   ar
    29    12     7    1
    30    13    14    1
