@<TRIPOS>MOLECULE
*****
 42 45 0 0 0
SMALL
GASTEIGER

@<TRIPOS>ATOM
      1 C         140.3359  141.5941  168.2780 C.2     1  UNL1        0.0706
      2 C         139.8076  140.5459  169.2119 C.2     1  UNL1        0.0283
      3 C         140.1455  140.6034  170.6722 C.3     1  UNL1        0.0470
      4 N         138.9413  139.4403  168.6855 N.pl3   1  UNL1       -0.3193
      5 C         138.6034  139.3827  167.2252 C.2     1  UNL1        0.0264
      6 C         137.7372  138.2770  166.6988 C.3     1  UNL1        0.0470
      7 C         139.1318  140.4309  166.2913 C.2     1  UNL1        0.0485
      8 C         139.9980  141.5366  166.8177 C.3     1  UNL1        0.0795
      9 H         138.5946  138.7523  169.2984 H       1  UNL1        0.1516
     10 C         140.5263  142.5848  165.8837 C.ar    1  UNL1       -0.0078
     11 C         139.6685  143.7570  165.5095 C.ar    1  UNL1       -0.0032
     12 C         140.1968  144.8051  164.5756 C.ar    1  UNL1        0.0060
     13 C         141.5829  144.6811  164.0158 C.ar    1  UNL1        0.0752
     14 C         142.4407  143.5089  164.3900 C.ar    1  UNL1        0.2898
     15 C         141.9124  142.4607  165.3240 C.ar    1  UNL1        0.0716
     16 N         143.8268  143.3848  163.8303 N.pl3   1  UNL1        0.0809
     17 O         144.9041  142.7205  164.6354 O.2     1  UNL1        0.0415
     18 O         144.1356  143.9251  162.4655 O.co2   1  UNL1       -0.5760
     19 C         138.7938  140.3734  164.8309 C.2     1  UNL1        0.2434
     20 O         139.5602  139.4617  163.9191 O.2     1  UNL1       -0.2704
     21 N         137.6896  141.2277  164.2825 N.am    1  UNL1       -0.3010
     22 H         137.1866  141.8261  164.8810 H       1  UNL1        0.1497
     23 C         137.3516  141.1702  162.8222 C.3     1  UNL1        0.0911
     24 C         138.4188  141.4091  161.7955 C.3     1  UNL1        0.0370
     25 C         139.3118  142.6116  161.7153 C.3     1  UNL1        0.0204
     26 C         140.2252  142.4331  160.5389 C.3     1  UNL1        0.0722
     27 N         139.8966  141.1203  159.8920 N.3     1  UNL1       -0.2723
     28 C         138.7802  140.4874  160.6686 C.3     1  UNL1        0.0738
     29 C         140.5668  140.5418  158.6811 C.3     1  UNL1        0.0768
     30 C         141.9395  139.9479  158.7954 C.3     1  UNL1        0.0437
     31 C         142.5748  139.7817  160.1440 C.ar    1  UNL1       -0.0199
     32 C         143.7412  140.6401  160.5345 C.ar    1  UNL1       -0.0033
     33 C         144.3765  140.4738  161.8832 C.ar    1  UNL1        0.0119
     34 C         143.8454  139.4490  162.8412 C.ar    1  UNL1        0.0682
     35 CL        144.4808  139.2827  164.1898 Cl      1  UNL1       -0.0814
     36 C         142.6790  138.5905  162.4506 C.ar    1  UNL1        0.0679
     37 CL        142.1480  137.5657  163.4086 Cl      1  UNL1       -0.0814
     38 C         142.0437  138.7568  161.1020 C.ar    1  UNL1        0.0080
     39 C         141.2022  142.6998  168.8044 C.2     1  UNL1        0.3388
     40 O         140.5783  143.8823  169.4844 O.2     1  UNL1       -0.2452
     41 C         143.5433  142.1795  169.8036 C.3     1  UNL1        0.2559
     42 O         142.6923  142.6230  168.6507 O.3     1  UNL1       -0.4415
@<TRIPOS>UNITY_ATOM_ATTR
16 1
charge 1
18 1
charge -1
@<TRIPOS>BOND
     1    41    42    1
     2    42    39    1
     3    39    40    2
     4    39     1    1
     5     1     2    2
     6     2     3    1
     7     2     4    1
     8     4     5    1
     9     5     6    1
    10     5     7    2
    11     7    19    1
    12    19    20    2
    13    19    21   am
    14    21    23    1
    15    24    23    1
    16    24    25    1
    17    25    26    1
    18    26    27    1
    19    27    29    1
    20    29    30    1
    21    30    31    1
    22    31    32   ar
    23    32    33   ar
    24    33    34   ar
    25    34    35    1
    26    34    36   ar
    27    36    37    1
    28    36    38   ar
    29    27    28    1
    30     7     8    1
    31     8    10    1
    32    10    11   ar
    33    11    12   ar
    34    12    13   ar
    35    13    14   ar
    36    14    16    1
    37    16    17    2
    38    16    18    1
    39    14    15   ar
    40     8     1    1
    41    15    10   ar
    42    28    24    1
    43    38    31   ar
    44     4     9    1
    45    21    22    1
@<TRIPOS>MOLECULE
*****
 42 45 0 0 0
SMALL
GASTEIGER

@<TRIPOS>ATOM
      1 C         140.0693  141.5014  168.1442 C.2     1  UNL1        0.0706
      2 C         139.4059  140.5816  169.1259 C.2     1  UNL1        0.0283
      3 C         139.5231  140.8450  170.5980 C.3     1  UNL1        0.0470
      4 N         138.6254  139.3982  168.6356 N.pl3   1  UNL1       -0.3193
      5 C         138.5082  139.1347  167.1636 C.2     1  UNL1        0.0264
      6 C         137.7276  137.9514  166.6733 C.3     1  UNL1        0.0470
      7 C         139.1715  140.0546  166.1819 C.2     1  UNL1        0.0485
      8 C         139.9520  141.2380  166.6722 C.3     1  UNL1        0.0795
      9 H         138.1900  138.7945  169.2799 H       1  UNL1        0.1516
     10 C         140.6154  142.1579  165.6904 C.ar    1  UNL1       -0.0078
     11 C         142.0965  142.0752  165.4678 C.ar    1  UNL1       -0.0032
     12 C         142.7598  142.9950  164.4860 C.ar    1  UNL1        0.0060
     13 C         141.9421  143.9976  163.7269 C.ar    1  UNL1        0.0752
     14 C         140.4610  144.0803  163.9496 C.ar    1  UNL1        0.2898
     15 C         139.7977  143.1604  164.9314 C.ar    1  UNL1        0.0716
     16 N         139.6433  145.0828  163.1905 N.pl3   1  UNL1        0.0809
     17 O         138.1501  144.9493  163.1406 O.2     1  UNL1        0.0415
     18 O         140.3188  146.2189  162.4813 O.co2   1  UNL1       -0.5760
     19 C         139.0543  139.7911  164.7098 C.2     1  UNL1        0.2434
     20 O         140.1229  139.0143  163.9996 O.2     1  UNL1       -0.2704
     21 N         137.8685  140.3046  163.9481 N.am    1  UNL1       -0.3010
     22 H         137.1671  140.8145  164.4143 H       1  UNL1        0.1497
     23 C         137.7512  140.0412  162.4761 C.3     1  UNL1        0.0911
     24 C         138.7791  140.5904  161.5317 C.3     1  UNL1        0.0370
     25 C         139.2029  142.0254  161.4272 C.3     1  UNL1        0.0204
     26 C         140.2493  142.1230  160.3569 C.3     1  UNL1        0.0722
     27 N         140.4722  140.7482  159.7999 N.3     1  UNL1       -0.2723
     28 C         139.5635  139.8010  160.5260 C.3     1  UNL1        0.0738
     29 C         141.4347  140.3844  158.7085 C.3     1  UNL1        0.0768
     30 C         142.6536  139.5692  159.0243 C.3     1  UNL1        0.0437
     31 C         143.2141  139.5662  160.4156 C.ar    1  UNL1       -0.0199
     32 C         142.9028  138.4325  161.3471 C.ar    1  UNL1       -0.0033
     33 C         143.4634  138.4296  162.7385 C.ar    1  UNL1        0.0119
     34 C         144.3351  139.5604  163.1983 C.ar    1  UNL1        0.0682
     35 CL        144.8956  139.5574  164.5897 Cl      1  UNL1       -0.0814
     36 C         144.6463  140.6941  162.2668 C.ar    1  UNL1        0.0679
     37 CL        145.5181  141.8249  162.7265 Cl      1  UNL1       -0.0814
     38 C         144.0858  140.6970  160.8753 C.ar    1  UNL1        0.0080
     39 C         140.8498  142.6848  168.6345 C.2     1  UNL1        0.3388
     40 O         140.1385  143.9550  168.9958 O.2     1  UNL1       -0.2452
     41 C         142.9882  141.2955  169.1314 C.3     1  UNL1        0.2559
     42 O         142.3417  142.5980  168.7634 O.3     1  UNL1       -0.4415
@<TRIPOS>UNITY_ATOM_ATTR
16 1
charge 1
18 1
charge -1
@<TRIPOS>BOND
     1    41    42    1
     2    42    39    1
     3    39    40    2
     4    39     1    1
     5     1     2    2
     6     2     3    1
     7     2     4    1
     8     4     5    1
     9     5     6    1
    10     5     7    2
    11     7    19    1
    12    19    20    2
    13    19    21   am
    14    21    23    1
    15    24    23    1
    16    24    25    1
    17    25    26    1
    18    26    27    1
    19    27    29    1
    20    29    30    1
    21    30    31    1
    22    31    32   ar
    23    32    33   ar
    24    33    34   ar
    25    34    35    1
    26    34    36   ar
    27    36    37    1
    28    36    38   ar
    29    27    28    1
    30     7     8    1
    31     8    10    1
    32    10    11   ar
    33    11    12   ar
    34    12    13   ar
    35    13    14   ar
    36    14    16    1
    37    16    17    2
    38    16    18    1
    39    14    15   ar
    40     8     1    1
    41    15    10   ar
    42    28    24    1
    43    38    31   ar
    44     4     9    1
    45    21    22    1
@<TRIPOS>MOLECULE
*****
 42 45 0 0 0
SMALL
GASTEIGER

@<TRIPOS>ATOM
      1 C         140.1670  141.6515  168.0735 C.2     1  UNL1        0.0706
      2 C         139.6961  140.5436  168.9684 C.2     1  UNL1        0.0283
      3 C         139.9597  140.6077  170.4437 C.3     1  UNL1        0.0470
      4 N         138.9616  139.3715  168.3880 N.pl3   1  UNL1       -0.3193
      5 C         138.6980  139.3074  166.9127 C.2     1  UNL1        0.0264
      6 C         137.9635  138.1353  166.3323 C.3     1  UNL1        0.0470
      7 C         139.1689  140.4153  166.0179 C.2     1  UNL1        0.0485
      8 C         139.9034  141.5873  166.5983 C.3     1  UNL1        0.0795
      9 H         138.6526  138.6444  168.9753 H       1  UNL1        0.1516
     10 C         140.3743  142.6953  165.7034 C.ar    1  UNL1       -0.0078
     11 C         139.4612  143.8421  165.3857 C.ar    1  UNL1       -0.0032
     12 C         139.9320  144.9500  164.4908 C.ar    1  UNL1        0.0060
     13 C         141.3160  144.9111  163.9136 C.ar    1  UNL1        0.0752
     14 C         142.2291  143.7642  164.2313 C.ar    1  UNL1        0.2898
     15 C         141.7582  142.6563  165.1262 C.ar    1  UNL1        0.0716
     16 N         143.6130  143.7253  163.6541 N.pl3   1  UNL1        0.0809
     17 O         144.4960  142.5384  163.9024 O.2     1  UNL1        0.0415
     18 O         144.1139  144.8732  162.8287 O.co2   1  UNL1       -0.5760
     19 C         138.9053  140.3512  164.5426 C.2     1  UNL1        0.2434
     20 O         139.9451  139.7900  163.6186 O.2     1  UNL1       -0.2704
     21 N         137.6018  140.8483  163.9913 N.am    1  UNL1       -0.3010
     22 H         136.9194  141.2166  164.5978 H       1  UNL1        0.1497
     23 C         137.3382  140.7842  162.5161 C.3     1  UNL1        0.0911
     24 C         138.0719  141.7009  161.5826 C.3     1  UNL1        0.0370
     25 C         138.3581  141.4390  160.1336 C.3     1  UNL1        0.0204
     26 C         139.1113  142.6166  159.5896 C.3     1  UNL1        0.0722
     27 N         139.2906  143.6063  160.7024 N.3     1  UNL1       -0.2723
     28 C         138.6482  143.0404  161.9341 C.3     1  UNL1        0.0738
     29 C         139.9896  144.9297  160.6013 C.3     1  UNL1        0.0768
     30 C         141.4836  144.9813  160.4783 C.3     1  UNL1        0.0437
     31 C         142.2159  143.8830  159.7659 C.ar    1  UNL1       -0.0199
     32 C         142.4843  143.9922  158.2942 C.ar    1  UNL1       -0.0033
     33 C         143.2166  142.8939  157.5819 C.ar    1  UNL1        0.0119
     34 C         143.6806  141.6864  158.3412 C.ar    1  UNL1        0.0682
     35 CL        144.4129  140.5881  157.6289 Cl      1  UNL1       -0.0814
     36 C         143.4122  141.5772  159.8130 C.ar    1  UNL1        0.0679
     37 CL        143.8761  140.3697  160.5724 Cl      1  UNL1       -0.0814
     38 C         142.6799  142.6755  160.5254 C.ar    1  UNL1        0.0080
     39 C         140.9015  142.8235  168.6539 C.2     1  UNL1        0.3388
     40 O         140.1363  143.9697  169.2461 O.2     1  UNL1       -0.2452
     41 C         143.1691  142.3614  169.8347 C.3     1  UNL1        0.2559
     42 O         142.4012  142.8494  168.6421 O.3     1  UNL1       -0.4415
@<TRIPOS>UNITY_ATOM_ATTR
16 1
charge 1
18 1
charge -1
@<TRIPOS>BOND
     1    41    42    1
     2    42    39    1
     3    39    40    2
     4    39     1    1
     5     1     2    2
     6     2     3    1
     7     2     4    1
     8     4     5    1
     9     5     6    1
    10     5     7    2
    11     7    19    1
    12    19    20    2
    13    19    21   am
    14    21    23    1
    15    24    23    1
    16    24    25    1
    17    25    26    1
    18    26    27    1
    19    27    29    1
    20    29    30    1
    21    30    31    1
    22    31    32   ar
    23    32    33   ar
    24    33    34   ar
    25    34    35    1
    26    34    36   ar
    27    36    37    1
    28    36    38   ar
    29    27    28    1
    30     7     8    1
    31     8    10    1
    32    10    11   ar
    33    11    12   ar
    34    12    13   ar
    35    13    14   ar
    36    14    16    1
    37    16    17    2
    38    16    18    1
    39    14    15   ar
    40     8     1    1
    41    15    10   ar
    42    28    24    1
    43    38    31   ar
    44     4     9    1
    45    21    22    1
@<TRIPOS>MOLECULE
*****
 42 45 0 0 0
SMALL
GASTEIGER

@<TRIPOS>ATOM
      1 C         140.5234  141.1120  168.0199 C.2     1  UNL1        0.0706
      2 C         139.5720  140.4202  168.9507 C.2     1  UNL1        0.0283
      3 C         139.5293  140.8031  170.4004 C.3     1  UNL1        0.0470
      4 N         138.6632  139.3456  168.4318 N.pl3   1  UNL1       -0.3193
      5 C         138.7058  138.9627  166.9822 C.2     1  UNL1        0.0264
      6 C         137.7970  137.8880  166.4633 C.3     1  UNL1        0.0470
      7 C         139.6572  139.6544  166.0514 C.2     1  UNL1        0.0485
      8 C         140.5660  140.7290  166.5703 C.3     1  UNL1        0.0795
      9 H         138.0388  138.8916  169.0427 H       1  UNL1        0.1516
     10 C         141.5174  141.4208  165.6395 C.ar    1  UNL1       -0.0078
     11 C         141.1741  142.7709  165.0833 C.ar    1  UNL1       -0.0032
     12 C         142.1254  143.4626  164.1525 C.ar    1  UNL1        0.0060
     13 C         143.4201  142.8043  163.7779 C.ar    1  UNL1        0.0752
     14 C         143.7635  141.4542  164.3341 C.ar    1  UNL1        0.2898
     15 C         142.8121  140.7624  165.2649 C.ar    1  UNL1        0.0716
     16 N         145.0581  140.7958  163.9595 N.pl3   1  UNL1        0.0809
     17 O         145.2956  139.3561  164.3072 O.2     1  UNL1        0.0415
     18 O         146.1154  141.5772  163.2372 O.co2   1  UNL1       -0.5760
     19 C         139.6998  139.2715  164.6017 C.2     1  UNL1        0.2434
     20 O         138.7302  139.8844  163.6352 O.2     1  UNL1       -0.2704
     21 N         140.7122  138.2757  164.1185 N.am    1  UNL1       -0.3010
     22 H         141.3486  137.8734  164.7528 H       1  UNL1        0.1497
     23 C         140.7549  137.8928  162.6688 C.3     1  UNL1        0.0911
     24 C         141.2070  138.8893  161.6429 C.3     1  UNL1        0.0370
     25 C         142.6238  139.3099  161.3867 C.3     1  UNL1        0.0204
     26 C         142.6141  140.3207  160.2784 C.3     1  UNL1        0.0722
     27 N         141.1912  140.5247  159.8496 N.3     1  UNL1       -0.2723
     28 C         140.3216  139.6401  160.6929 C.3     1  UNL1        0.0738
     29 C         140.7206  141.4508  158.7676 C.3     1  UNL1        0.0768
     30 C         139.4552  142.2354  158.9497 C.3     1  UNL1        0.0437
     31 C         139.1650  142.8961  160.2647 C.ar    1  UNL1       -0.0199
     32 C         138.1061  142.3366  161.1676 C.ar    1  UNL1       -0.0033
     33 C         137.8159  142.9974  162.4827 C.ar    1  UNL1        0.0119
     34 C         138.5848  144.2177  162.8947 C.ar    1  UNL1        0.0682
     35 CL        138.2946  144.8784  164.2097 Cl      1  UNL1       -0.0814
     36 C         139.6438  144.7772  161.9917 C.ar    1  UNL1        0.0679
     37 CL        140.4127  145.9975  162.4036 Cl      1  UNL1       -0.0814
     38 C         139.9339  144.1164  160.6766 C.ar    1  UNL1        0.0080
     39 C         141.4321  142.1866  168.5388 C.2     1  UNL1        0.3388
     40 O         140.8647  143.5091  168.9617 O.2     1  UNL1       -0.2452
     41 C         143.6719  142.4127  169.8358 C.3     1  UNL1        0.2559
     42 O         142.9084  141.9387  168.6349 O.3     1  UNL1       -0.4415
@<TRIPOS>UNITY_ATOM_ATTR
16 1
charge 1
18 1
charge -1
@<TRIPOS>BOND
     1    41    42    1
     2    42    39    1
     3    39    40    2
     4    39     1    1
     5     1     2    2
     6     2     3    1
     7     2     4    1
     8     4     5    1
     9     5     6    1
    10     5     7    2
    11     7    19    1
    12    19    20    2
    13    19    21   am
    14    21    23    1
    15    24    23    1
    16    24    25    1
    17    25    26    1
    18    26    27    1
    19    27    29    1
    20    29    30    1
    21    30    31    1
    22    31    32   ar
    23    32    33   ar
    24    33    34   ar
    25    34    35    1
    26    34    36   ar
    27    36    37    1
    28    36    38   ar
    29    27    28    1
    30     7     8    1
    31     8    10    1
    32    10    11   ar
    33    11    12   ar
    34    12    13   ar
    35    13    14   ar
    36    14    16    1
    37    16    17    2
    38    16    18    1
    39    14    15   ar
    40     8     1    1
    41    15    10   ar
    42    28    24    1
    43    38    31   ar
    44     4     9    1
    45    21    22    1
@<TRIPOS>MOLECULE
*****
 42 45 0 0 0
SMALL
GASTEIGER

@<TRIPOS>ATOM
      1 C         139.8878  143.9723  158.8819 C.2     1  UNL1        0.0706
      2 C         139.6498  144.0077  157.4013 C.2     1  UNL1        0.0283
      3 C         139.9532  145.2533  156.6225 C.3     1  UNL1        0.0470
      4 N         139.1083  142.7976  156.6996 N.pl3   1  UNL1       -0.3193
      5 C         138.8049  141.5521  157.4783 C.2     1  UNL1        0.0264
      6 C         138.2634  140.3420  156.7766 C.3     1  UNL1        0.0470
      7 C         139.0429  141.5167  158.9589 C.2     1  UNL1        0.0485
      8 C         139.5843  142.7268  159.6606 C.3     1  UNL1        0.0795
      9 H         138.9521  142.8209  155.7278 H       1  UNL1        0.1516
     10 C         139.8224  142.6913  161.1413 C.ar    1  UNL1       -0.0078
     11 C         138.6733  142.8638  162.0899 C.ar    1  UNL1       -0.0032
     12 C         138.9113  142.8283  163.5705 C.ar    1  UNL1        0.0060
     13 C         140.2983  142.6204  164.1024 C.ar    1  UNL1        0.0752
     14 C         141.4474  142.4479  163.1538 C.ar    1  UNL1        0.2898
     15 C         141.2093  142.4834  161.6732 C.ar    1  UNL1        0.0716
     16 N         142.8344  142.2400  163.6857 N.pl3   1  UNL1        0.0809
     17 O         143.4344  140.8653  163.6988 O.2     1  UNL1        0.0415
     18 O         143.6213  143.4068  164.2045 O.co2   1  UNL1       -0.5760
     19 C         138.7395  140.2711  159.7377 C.2     1  UNL1        0.2434
     20 O         137.3209  139.9327  160.0884 O.2     1  UNL1       -0.2704
     21 N         139.8547  139.3639  160.1659 N.am    1  UNL1       -0.3010
     22 H         140.7858  139.5860  159.9357 H       1  UNL1        0.1497
     23 C         139.5513  138.1184  160.9447 C.3     1  UNL1        0.0911
     24 C         139.4797  138.1690  162.4421 C.3     1  UNL1        0.0370
     25 C         140.3209  137.3696  163.3926 C.3     1  UNL1        0.0204
     26 C         139.9154  137.7344  164.7899 C.3     1  UNL1        0.0722
     27 N         138.8235  138.7592  164.7030 N.3     1  UNL1       -0.2723
     28 C         138.5542  139.0277  163.2520 C.3     1  UNL1        0.0738
     29 C         138.1237  139.4024  165.8634 C.3     1  UNL1        0.0768
     30 C         138.5752  139.1149  167.2647 C.3     1  UNL1        0.0437
     31 C         139.4801  140.0784  167.9737 C.ar    1  UNL1       -0.0199
     32 C         139.2016  140.4598  169.3974 C.ar    1  UNL1       -0.0033
     33 C         140.1066  141.4234  170.1064 C.ar    1  UNL1        0.0119
     34 C         141.2900  142.0055  169.3917 C.ar    1  UNL1        0.0682
     35 CL        142.1949  142.9690  170.1007 Cl      1  UNL1       -0.0814
     36 C         141.5684  141.6240  167.9680 C.ar    1  UNL1        0.0679
     37 CL        142.7518  142.2061  167.2533 Cl      1  UNL1       -0.0814
     38 C         140.6634  140.6604  167.2589 C.ar    1  UNL1        0.0080
     39 C         140.4292  145.1824  159.5836 C.2     1  UNL1        0.3388
     40 O         141.8898  145.5114  159.4925 O.2     1  UNL1       -0.2452
     41 C         139.7680  146.2963  161.8357 C.3     1  UNL1        0.2559
     42 O         139.5100  146.0635  160.3765 O.3     1  UNL1       -0.4415
@<TRIPOS>UNITY_ATOM_ATTR
16 1
charge 1
18 1
charge -1
@<TRIPOS>BOND
     1    41    42    1
     2    42    39    1
     3    39    40    2
     4    39     1    1
     5     1     2    2
     6     2     3    1
     7     2     4    1
     8     4     5    1
     9     5     6    1
    10     5     7    2
    11     7    19    1
    12    19    20    2
    13    19    21   am
    14    21    23    1
    15    24    23    1
    16    24    25    1
    17    25    26    1
    18    26    27    1
    19    27    29    1
    20    29    30    1
    21    30    31    1
    22    31    32   ar
    23    32    33   ar
    24    33    34   ar
    25    34    35    1
    26    34    36   ar
    27    36    37    1
    28    36    38   ar
    29    27    28    1
    30     7     8    1
    31     8    10    1
    32    10    11   ar
    33    11    12   ar
    34    12    13   ar
    35    13    14   ar
    36    14    16    1
    37    16    17    2
    38    16    18    1
    39    14    15   ar
    40     8     1    1
    41    15    10   ar
    42    28    24    1
    43    38    31   ar
    44     4     9    1
    45    21    22    1
@<TRIPOS>MOLECULE
*****
 42 45 0 0 0
SMALL
GASTEIGER

@<TRIPOS>ATOM
      1 C         140.2093  141.6336  168.2449 C.2     1  UNL1        0.0706
      2 C         139.7173  140.5663  169.1770 C.2     1  UNL1        0.0283
      3 C         140.0304  140.6471  170.6418 C.3     1  UNL1        0.0470
      4 N         138.9123  139.4182  168.6444 N.pl3   1  UNL1       -0.3193
      5 C         138.5992  139.3373  167.1797 C.2     1  UNL1        0.0264
      6 C         137.7942  138.1892  166.6471 C.3     1  UNL1        0.0470
      7 C         139.0912  140.4046  166.2476 C.2     1  UNL1        0.0485
      8 C         139.8962  141.5528  166.7802 C.3     1  UNL1        0.0795
      9 H         138.5894  138.7177  169.2562 H       1  UNL1        0.1516
     10 C         140.3882  142.6201  165.8481 C.ar    1  UNL1       -0.0078
     11 C         139.5018  143.7793  165.5007 C.ar    1  UNL1       -0.0032
     12 C         139.9936  144.8466  164.5686 C.ar    1  UNL1        0.0060
     13 C         141.3720  144.7547  163.9838 C.ar    1  UNL1        0.0752
     14 C         142.2584  143.5956  164.3312 C.ar    1  UNL1        0.2898
     15 C         141.7664  142.5283  165.2634 C.ar    1  UNL1        0.0716
     16 N         143.6366  143.5037  163.7465 N.pl3   1  UNL1        0.0809
     17 O         144.7386  142.8463  164.5233 O.2     1  UNL1        0.0415
     18 O         143.9129  144.0693  162.3850 O.co2   1  UNL1       -0.5760
     19 C         138.7781  140.3238  164.7828 C.2     1  UNL1        0.2434
     20 O         139.6382  139.4935  163.8768 O.2     1  UNL1       -0.2704
     21 N         137.6050  141.0733  164.2242 N.am    1  UNL1       -0.3010
     22 H         137.0405  141.6182  164.8189 H       1  UNL1        0.1497
     23 C         137.2919  140.9925  162.7595 C.3     1  UNL1        0.0911
     24 C         138.3200  141.4068  161.7488 C.3     1  UNL1        0.0370
     25 C         139.3029  142.5296  161.9003 C.3     1  UNL1        0.0204
     26 C         140.1360  142.5878  160.6543 C.3     1  UNL1        0.0722
     27 N         139.6680  141.5009  159.7327 N.3     1  UNL1       -0.2723
     28 C         138.5456  140.7710  160.4091 C.3     1  UNL1        0.0738
     29 C         140.2246  141.1971  158.3733 C.3     1  UNL1        0.0768
     30 C         139.3819  141.4160  157.1518 C.3     1  UNL1        0.0437
     31 C         139.1751  142.8041  156.6222 C.ar    1  UNL1       -0.0199
     32 C         137.9249  143.1390  155.8640 C.ar    1  UNL1       -0.0033
     33 C         137.7181  144.5271  155.3344 C.ar    1  UNL1        0.0119
     34 C         138.7615  145.5803  155.5630 C.ar    1  UNL1        0.0682
     35 CL        138.5546  146.9683  155.0334 Cl      1  UNL1       -0.0814
     36 C         140.0117  145.2453  156.3212 C.ar    1  UNL1        0.0679
     37 CL        141.0550  146.2985  156.5499 Cl      1  UNL1       -0.0814
     38 C         140.2185  143.8572  156.8508 C.ar    1  UNL1        0.0080
     39 C         141.0143  142.7818  168.7776 C.2     1  UNL1        0.3388
     40 O         140.3221  143.9594  169.3973 O.2     1  UNL1       -0.2452
     41 C         143.3110  142.0586  169.7532 C.3     1  UNL1        0.2559
     42 O         142.5114  142.7523  168.6905 O.3     1  UNL1       -0.4415
@<TRIPOS>UNITY_ATOM_ATTR
16 1
charge 1
18 1
charge -1
@<TRIPOS>BOND
     1    41    42    1
     2    42    39    1
     3    39    40    2
     4    39     1    1
     5     1     2    2
     6     2     3    1
     7     2     4    1
     8     4     5    1
     9     5     6    1
    10     5     7    2
    11     7    19    1
    12    19    20    2
    13    19    21   am
    14    21    23    1
    15    24    23    1
    16    24    25    1
    17    25    26    1
    18    26    27    1
    19    27    29    1
    20    29    30    1
    21    30    31    1
    22    31    32   ar
    23    32    33   ar
    24    33    34   ar
    25    34    35    1
    26    34    36   ar
    27    36    37    1
    28    36    38   ar
    29    27    28    1
    30     7     8    1
    31     8    10    1
    32    10    11   ar
    33    11    12   ar
    34    12    13   ar
    35    13    14   ar
    36    14    16    1
    37    16    17    2
    38    16    18    1
    39    14    15   ar
    40     8     1    1
    41    15    10   ar
    42    28    24    1
    43    38    31   ar
    44     4     9    1
    45    21    22    1
@<TRIPOS>MOLECULE
*****
 42 45 0 0 0
SMALL
GASTEIGER

@<TRIPOS>ATOM
      1 C         139.5736  141.7373  157.8900 C.2     1  UNL1        0.0706
      2 C         139.8610  142.9663  157.0796 C.2     1  UNL1        0.0283
      3 C         139.9347  142.8782  155.5839 C.3     1  UNL1        0.0470
      4 N         140.0748  144.2835  157.7647 N.pl3   1  UNL1       -0.3193
      5 C         140.0011  144.3717  159.2602 C.2     1  UNL1        0.0264
      6 C         140.2149  145.6888  159.9454 C.3     1  UNL1        0.0470
      7 C         139.7137  143.1427  160.0707 C.2     1  UNL1        0.0485
      8 C         139.4999  141.8255  159.3856 C.3     1  UNL1        0.0795
      9 H         140.2635  145.0901  157.2327 H       1  UNL1        0.1516
     10 C         139.2124  140.5964  160.1962 C.ar    1  UNL1       -0.0078
     11 C         137.7939  140.2025  160.4837 C.ar    1  UNL1       -0.0032
     12 C         137.5065  138.9736  161.2942 C.ar    1  UNL1        0.0060
     13 C         138.6375  138.1384  161.8172 C.ar    1  UNL1        0.0752
     14 C         140.0560  138.5324  161.5296 C.ar    1  UNL1        0.2898
     15 C         140.3434  139.7614  160.7191 C.ar    1  UNL1        0.0716
     16 N         141.1870  137.6973  162.0526 N.pl3   1  UNL1        0.0809
     17 O         140.9718  136.7986  163.2341 O.2     1  UNL1        0.0415
     18 O         142.5331  137.7610  161.3940 O.co2   1  UNL1       -0.5760
     19 C         139.6400  143.2308  161.5664 C.2     1  UNL1        0.2434
     20 O         140.8945  143.1530  162.3850 O.2     1  UNL1       -0.2704
     21 N         138.3117  143.3967  162.2433 N.am    1  UNL1       -0.3010
     22 H         137.4884  143.4478  161.7060 H       1  UNL1        0.1497
     23 C         138.2380  143.4848  163.7389 C.3     1  UNL1        0.0911
     24 C         138.6086  142.2989  164.5793 C.3     1  UNL1        0.0370
     25 C         138.0938  140.9006  164.4067 C.3     1  UNL1        0.0204
     26 C         138.7261  140.0405  165.4605 C.3     1  UNL1        0.0722
     27 N         139.6316  140.9073  166.2844 N.3     1  UNL1       -0.2723
     28 C         139.5589  142.3030  165.7398 C.3     1  UNL1        0.0738
     29 C         140.4636  140.4574  167.4486 C.3     1  UNL1        0.0768
     30 C         141.7276  139.6849  167.2130 C.3     1  UNL1        0.0437
     31 C         142.7504  140.1979  166.2431 C.ar    1  UNL1       -0.0199
     32 C         143.4261  139.2518  165.2954 C.ar    1  UNL1       -0.0033
     33 C         144.4490  139.7649  164.3255 C.ar    1  UNL1        0.0119
     34 C         144.7960  141.2240  164.3033 C.ar    1  UNL1        0.0682
     35 CL        145.8188  141.7371  163.3334 Cl      1  UNL1       -0.0814
     36 C         144.1202  142.1702  165.2511 C.ar    1  UNL1        0.0679
     37 CL        144.4673  143.6293  165.2290 Cl      1  UNL1       -0.0814
     38 C         143.0974  141.6571  166.2211 C.ar    1  UNL1        0.0080
     39 C         139.3598  140.4201  157.2049 C.2     1  UNL1        0.3388
     40 O         140.5386  139.6038  156.7646 O.2     1  UNL1       -0.2452
     41 C         136.8931  140.8720  156.5260 C.3     1  UNL1        0.2559
     42 O         137.9673  139.9193  156.9602 O.3     1  UNL1       -0.4415
@<TRIPOS>UNITY_ATOM_ATTR
16 1
charge 1
18 1
charge -1
@<TRIPOS>BOND
     1    41    42    1
     2    42    39    1
     3    39    40    2
     4    39     1    1
     5     1     2    2
     6     2     3    1
     7     2     4    1
     8     4     5    1
     9     5     6    1
    10     5     7    2
    11     7    19    1
    12    19    20    2
    13    19    21   am
    14    21    23    1
    15    24    23    1
    16    24    25    1
    17    25    26    1
    18    26    27    1
    19    27    29    1
    20    29    30    1
    21    30    31    1
    22    31    32   ar
    23    32    33   ar
    24    33    34   ar
    25    34    35    1
    26    34    36   ar
    27    36    37    1
    28    36    38   ar
    29    27    28    1
    30     7     8    1
    31     8    10    1
    32    10    11   ar
    33    11    12   ar
    34    12    13   ar
    35    13    14   ar
    36    14    16    1
    37    16    17    2
    38    16    18    1
    39    14    15   ar
    40     8     1    1
    41    15    10   ar
    42    28    24    1
    43    38    31   ar
    44     4     9    1
    45    21    22    1
@<TRIPOS>MOLECULE
*****
 42 45 0 0 0
SMALL
GASTEIGER

@<TRIPOS>ATOM
      1 C         141.3823  144.3041  157.6969 C.2     1  UNL1        0.0706
      2 C         142.3946  144.1417  156.6019 C.2     1  UNL1        0.0283
      3 C         142.0739  144.5999  155.2100 C.3     1  UNL1        0.0470
      4 N         143.7275  143.5211  156.8988 N.pl3   1  UNL1       -0.3193
      5 C         144.0482  143.0630  158.2906 C.2     1  UNL1        0.0264
      6 C         145.3812  142.4424  158.5874 C.3     1  UNL1        0.0470
      7 C         143.0360  143.2254  159.3855 C.2     1  UNL1        0.0485
      8 C         141.7030  143.8460  159.0887 C.3     1  UNL1        0.0795
      9 H         144.3919  143.4145  156.1801 H       1  UNL1        0.1516
     10 C         140.6908  144.0084  160.1837 C.ar    1  UNL1       -0.0078
     11 C         140.6015  145.3027  160.9365 C.ar    1  UNL1       -0.0032
     12 C         139.5893  145.4652  162.0315 C.ar    1  UNL1        0.0060
     13 C         138.6664  144.3333  162.3738 C.ar    1  UNL1        0.0752
     14 C         138.7557  143.0389  161.6209 C.ar    1  UNL1        0.2898
     15 C         139.7679  142.8765  160.5259 C.ar    1  UNL1        0.0716
     16 N         137.8328  141.9071  161.9631 N.pl3   1  UNL1        0.0809
     17 O         137.7971  140.6812  161.0995 O.2     1  UNL1        0.0415
     18 O         136.9457  142.0011  163.1690 O.co2   1  UNL1       -0.5760
     19 C         143.3567  142.7672  160.7774 C.2     1  UNL1        0.2434
     20 O         143.0272  141.3664  161.2005 O.2     1  UNL1       -0.2704
     21 N         144.0068  143.7100  161.7462 N.am    1  UNL1       -0.3010
     22 H         144.2231  144.6294  161.4685 H       1  UNL1        0.1497
     23 C         144.3275  143.2519  163.1380 C.3     1  UNL1        0.0911
     24 C         143.2304  143.1024  164.1500 C.3     1  UNL1        0.0370
     25 C         141.8347  143.6371  164.0226 C.3     1  UNL1        0.0204
     26 C         141.0780  143.2572  165.2608 C.3     1  UNL1        0.0722
     27 N         142.0060  142.4878  166.1534 N.3     1  UNL1       -0.2723
     28 C         143.3363  142.3921  165.4668 C.3     1  UNL1        0.0738
     29 C         141.6639  141.9146  167.4967 C.3     1  UNL1        0.0768
     30 C         141.2117  140.4889  167.6107 C.3     1  UNL1        0.0437
     31 C         140.5412  139.8194  166.4479 C.ar    1  UNL1       -0.0199
     32 C         139.0965  140.0959  166.1544 C.ar    1  UNL1       -0.0033
     33 C         138.4260  139.4263  164.9915 C.ar    1  UNL1        0.0119
     34 C         139.2003  138.4804  164.1222 C.ar    1  UNL1        0.0682
     35 CL        138.5298  137.8109  162.9593 Cl      1  UNL1       -0.0814
     36 C         140.6451  138.2040  164.4157 C.ar    1  UNL1        0.0679
     37 CL        141.4194  137.2580  163.5465 Cl      1  UNL1       -0.0814
     38 C         141.3156  138.8735  165.5787 C.ar    1  UNL1        0.0080
     39 C         140.0494  144.9247  157.4000 C.2     1  UNL1        0.3388
     40 O         139.8900  146.4156  157.4425 O.2     1  UNL1       -0.2452
     41 C         139.0893  142.6136  156.7023 C.3     1  UNL1        0.2559
     42 O         138.8758  144.0545  157.0606 O.3     1  UNL1       -0.4415
@<TRIPOS>UNITY_ATOM_ATTR
16 1
charge 1
18 1
charge -1
@<TRIPOS>BOND
     1    41    42    1
     2    42    39    1
     3    39    40    2
     4    39     1    1
     5     1     2    2
     6     2     3    1
     7     2     4    1
     8     4     5    1
     9     5     6    1
    10     5     7    2
    11     7    19    1
    12    19    20    2
    13    19    21   am
    14    21    23    1
    15    24    23    1
    16    24    25    1
    17    25    26    1
    18    26    27    1
    19    27    29    1
    20    29    30    1
    21    30    31    1
    22    31    32   ar
    23    32    33   ar
    24    33    34   ar
    25    34    35    1
    26    34    36   ar
    27    36    37    1
    28    36    38   ar
    29    27    28    1
    30     7     8    1
    31     8    10    1
    32    10    11   ar
    33    11    12   ar
    34    12    13   ar
    35    13    14   ar
    36    14    16    1
    37    16    17    2
    38    16    18    1
    39    14    15   ar
    40     8     1    1
    41    15    10   ar
    42    28    24    1
    43    38    31   ar
    44     4     9    1
    45    21    22    1
@<TRIPOS>MOLECULE
*****
 42 45 0 0 0
SMALL
GASTEIGER

@<TRIPOS>ATOM
      1 C         141.0272  143.3754  158.8026 C.2     1  UNL1        0.0706
      2 C         140.3213  142.7540  157.6341 C.2     1  UNL1        0.0283
      3 C         140.7064  143.1359  156.2355 C.3     1  UNL1        0.0470
      4 N         139.2302  141.7507  157.8640 N.pl3   1  UNL1       -0.3193
      5 C         138.8451  141.3687  159.2625 C.2     1  UNL1        0.0264
      6 C         137.7540  140.3654  159.4925 C.3     1  UNL1        0.0470
      7 C         139.5510  141.9902  160.4310 C.2     1  UNL1        0.0485
      8 C         140.6420  142.9935  160.2011 C.3     1  UNL1        0.0795
      9 H         138.7669  141.3428  157.0971 H       1  UNL1        0.1516
     10 C         141.3480  143.6150  161.3697 C.ar    1  UNL1       -0.0078
     11 C         140.8060  144.8665  161.9942 C.ar    1  UNL1       -0.0032
     12 C         141.5119  145.4880  163.1627 C.ar    1  UNL1        0.0060
     13 C         142.7597  144.8579  163.7068 C.ar    1  UNL1        0.0752
     14 C         143.3016  143.6063  163.0823 C.ar    1  UNL1        0.2898
     15 C         142.5957  142.9849  161.9137 C.ar    1  UNL1        0.0716
     16 N         144.5494  142.9763  163.6264 N.pl3   1  UNL1        0.0809
     17 O         144.8842  143.1109  165.0823 O.2     1  UNL1        0.0415
     18 O         145.4624  142.2115  162.7145 O.co2   1  UNL1       -0.5760
     19 C         139.1658  141.6083  161.8296 C.2     1  UNL1        0.2434
     20 O         139.7460  140.3756  162.4572 O.2     1  UNL1       -0.2704
     21 N         138.2005  142.4591  162.6005 N.am    1  UNL1       -0.3010
     22 H         137.8197  143.2681  162.1885 H       1  UNL1        0.1497
     23 C         137.8153  142.0773  163.9989 C.3     1  UNL1        0.0911
     24 C         138.8591  142.0177  165.0746 C.3     1  UNL1        0.0370
     25 C         139.7115  143.1608  165.5402 C.3     1  UNL1        0.0204
     26 C         140.6130  142.6542  166.6269 C.3     1  UNL1        0.0722
     27 N         140.3177  141.1981  166.8329 N.3     1  UNL1       -0.2723
     28 C         139.2337  140.8047  165.8735 C.3     1  UNL1        0.0738
     29 C         140.9885  140.2940  167.8241 C.3     1  UNL1        0.0768
     30 C         142.2818  139.6215  167.4705 C.3     1  UNL1        0.0437
     31 C         142.5611  139.2332  166.0488 C.ar    1  UNL1       -0.0199
     32 C         143.7919  139.7433  165.3599 C.ar    1  UNL1       -0.0033
     33 C         144.0711  139.3549  163.9382 C.ar    1  UNL1        0.0119
     34 C         143.1194  138.4563  163.2055 C.ar    1  UNL1        0.0682
     35 CL        143.3986  138.0679  161.7838 Cl      1  UNL1       -0.0814
     36 C         141.8885  137.9461  163.8944 C.ar    1  UNL1        0.0679
     37 CL        140.9369  137.0475  163.1617 Cl      1  UNL1       -0.0814
     38 C         141.6093  138.3346  165.3162 C.ar    1  UNL1        0.0080
     39 C         142.1183  144.3788  158.5726 C.2     1  UNL1        0.3388
     40 O         141.7834  145.8356  158.4480 O.2     1  UNL1       -0.2452
     41 C         143.8590  142.4646  158.3368 C.3     1  UNL1        0.2559
     42 O         143.5442  143.9253  158.4673 O.3     1  UNL1       -0.4415
@<TRIPOS>UNITY_ATOM_ATTR
16 1
charge 1
18 1
charge -1
@<TRIPOS>BOND
     1    41    42    1
     2    42    39    1
     3    39    40    2
     4    39     1    1
     5     1     2    2
     6     2     3    1
     7     2     4    1
     8     4     5    1
     9     5     6    1
    10     5     7    2
    11     7    19    1
    12    19    20    2
    13    19    21   am
    14    21    23    1
    15    24    23    1
    16    24    25    1
    17    25    26    1
    18    26    27    1
    19    27    29    1
    20    29    30    1
    21    30    31    1
    22    31    32   ar
    23    32    33   ar
    24    33    34   ar
    25    34    35    1
    26    34    36   ar
    27    36    37    1
    28    36    38   ar
    29    27    28    1
    30     7     8    1
    31     8    10    1
    32    10    11   ar
    33    11    12   ar
    34    12    13   ar
    35    13    14   ar
    36    14    16    1
    37    16    17    2
    38    16    18    1
    39    14    15   ar
    40     8     1    1
    41    15    10   ar
    42    28    24    1
    43    38    31   ar
    44     4     9    1
    45    21    22    1
