@<TRIPOS>MOLECULE
*****
 33 37 0 0 0
SMALL
GASTEIGER

@<TRIPOS>ATOM
      1 C         140.2205  140.6397  165.1511 C.ar    1  UNL1        0.0889
      2 N         140.7172  140.0477  166.4366 N.ar    1  UNL1       -0.2427
      3 C         140.8330  141.1544  167.4425 C.ar    1  UNL1        0.0879
      4 S         140.4078  142.4305  166.7786 S.2     1  UNL1       -0.0693
      5 C         140.0293  142.1124  165.3624 C.ar    1  UNL1        0.0659
      6 F         139.1810  137.6435  160.0577 F       1  UNL1       -0.2042
      7 C         139.4409  138.3926  161.3311 C.ar    1  UNL1        0.1401
      8 C         140.6372  139.2906  161.4421 C.ar    1  UNL1        0.0297
      9 C         140.8970  140.0397  162.7155 C.ar    1  UNL1        0.0038
     10 C         139.9606  139.8907  163.8777 C.ar    1  UNL1        0.0183
     11 C         138.7644  138.9926  163.7667 C.ar    1  UNL1        0.0038
     12 C         138.5045  138.2435  162.4933 C.ar    1  UNL1        0.0297
     13 C         141.2931  141.0103  168.8629 C.3     1  UNL1        0.0493
     14 C         142.4426  140.1041  169.1906 C.3     1  UNL1        0.0236
     15 C         142.9027  139.9600  170.6109 C.3     1  UNL1        0.0690
     16 N         142.2134  140.7220  171.7036 N.3     1  UNL1       -0.2974
     17 C         141.0639  141.6283  171.3759 C.3     1  UNL1        0.0690
     18 C         140.6038  141.7724  169.9556 C.3     1  UNL1        0.0236
     19 H         142.9241  141.2988  172.1538 H       1  UNL1        0.1232
     20 C         139.5446  143.0946  164.3375 C.ar    1  UNL1        0.0932
     21 C         138.0753  143.3551  164.1842 C.ar    1  UNL1        0.0405
     22 C         137.5907  144.3373  163.1593 C.ar    1  UNL1        0.1034
     23 N         138.5752  145.0590  162.2877 N.ar    1  UNL1       -0.2120
     24 C         140.0445  144.7986  162.4410 C.ar    1  UNL1        0.2217
     25 N         140.5291  143.8164  163.4659 N.ar    1  UNL1       -0.2130
     26 N         141.0290  145.5203  161.5695 N.pl3   1  UNL1       -0.2679
     27 H         141.4944  146.3186  161.9091 H       1  UNL1        0.1565
     28 C         141.3045  145.0258  160.1804 C.ar    1  UNL1        0.1376
     29 C         140.3840  145.3971  159.0557 C.ar    1  UNL1        0.0552
     30 C         140.6595  144.9026  157.6666 C.ar    1  UNL1        0.1036
     31 N         141.8554  144.0368  157.4021 N.ar    1  UNL1       -0.2223
     32 C         142.7760  143.6654  158.5268 C.ar    1  UNL1        0.2001
     33 N         142.5005  144.1599  159.9159 N.ar    1  UNL1       -0.2088
@<TRIPOS>BOND
     1     6     7    1
     2     7     8   ar
     3     8     9   ar
     4     9    10   ar
     5    10     1    1
     6     1     2   ar
     7     2     3   ar
     8     3    13    1
     9    13    14    1
    10    14    15    1
    11    15    16    1
    12    16    17    1
    13    17    18    1
    14     3     4   ar
    15     4     5   ar
    16     5    20    1
    17    20    21   ar
    18    21    22   ar
    19    22    23   ar
    20    23    24   ar
    21    24    26    1
    22    26    28    1
    23    28    29   ar
    24    29    30   ar
    25    30    31   ar
    26    31    32   ar
    27    32    33   ar
    28    24    25   ar
    29    10    11   ar
    30    11    12   ar
    31    12     7   ar
    32     5     1   ar
    33    25    20   ar
    34    18    13    1
    35    33    28   ar
    36    16    19    1
    37    26    27    1
@<TRIPOS>MOLECULE
*****
 33 37 0 0 0
SMALL
GASTEIGER

@<TRIPOS>ATOM
      1 C         142.2579  142.2143  165.0805 C.ar    1  UNL1        0.0889
      2 N         142.8175  141.8085  166.4117 N.ar    1  UNL1       -0.2427
      3 C         141.6961  141.8165  167.4079 C.ar    1  UNL1        0.0879
      4 S         140.4434  142.2273  166.6924 S.2     1  UNL1       -0.0693
      5 C         140.7906  142.4731  165.2539 C.ar    1  UNL1        0.0659
      6 F         145.3463  142.7145  159.9607 F       1  UNL1       -0.2042
      7 C         144.5742  142.5894  161.2406 C.ar    1  UNL1        0.1401
      8 C         143.8198  141.3283  161.5413 C.ar    1  UNL1        0.0297
      9 C         143.0477  141.2033  162.8213 C.ar    1  UNL1        0.0038
     10 C         143.0300  142.3394  163.8005 C.ar    1  UNL1        0.0183
     11 C         143.7844  143.6005  163.4999 C.ar    1  UNL1        0.0038
     12 C         144.5565  143.7255  162.2199 C.ar    1  UNL1        0.0297
     13 C         141.8078  141.4739  168.8639 C.3     1  UNL1        0.0493
     14 C         142.8183  140.4641  169.3214 C.3     1  UNL1        0.0236
     15 C         142.9301  140.1215  170.7775 C.3     1  UNL1        0.0690
     16 N         142.0313  140.7886  171.7760 N.3     1  UNL1       -0.2974
     17 C         141.0208  141.7983  171.3185 C.3     1  UNL1        0.0690
     18 C         140.9091  142.1410  169.8625 C.3     1  UNL1        0.0236
     19 H         142.6366  141.2611  172.4474 H       1  UNL1        0.1232
     20 C         139.8378  142.9025  164.1779 C.ar    1  UNL1        0.0932
     21 C         138.5209  142.2020  164.0190 C.ar    1  UNL1        0.0405
     22 C         137.5681  142.6313  162.9430 C.ar    1  UNL1        0.1034
     23 N         137.9321  143.7611  162.0259 N.ar    1  UNL1       -0.2120
     24 C         139.2489  144.4615  162.1848 C.ar    1  UNL1        0.2217
     25 N         140.2017  144.0322  163.2608 N.ar    1  UNL1       -0.2130
     26 N         139.6129  145.5913  161.2677 N.pl3   1  UNL1       -0.2679
     27 H         139.3703  146.5155  161.5049 H       1  UNL1        0.1565
     28 C         140.3466  145.3130  159.9894 C.ar    1  UNL1        0.1376
     29 C         141.5499  144.4174  159.9949 C.ar    1  UNL1        0.0552
     30 C         142.2836  144.1391  158.7165 C.ar    1  UNL1        0.1036
     31 N         141.8140  144.7563  157.4326 N.ar    1  UNL1       -0.2223
     32 C         140.6107  145.6519  157.4271 C.ar    1  UNL1        0.2001
     33 N         139.8770  145.9303  158.7054 N.ar    1  UNL1       -0.2088
@<TRIPOS>BOND
     1     6     7    1
     2     7     8   ar
     3     8     9   ar
     4     9    10   ar
     5    10     1    1
     6     1     2   ar
     7     2     3   ar
     8     3    13    1
     9    13    14    1
    10    14    15    1
    11    15    16    1
    12    16    17    1
    13    17    18    1
    14     3     4   ar
    15     4     5   ar
    16     5    20    1
    17    20    21   ar
    18    21    22   ar
    19    22    23   ar
    20    23    24   ar
    21    24    26    1
    22    26    28    1
    23    28    29   ar
    24    29    30   ar
    25    30    31   ar
    26    31    32   ar
    27    32    33   ar
    28    24    25   ar
    29    10    11   ar
    30    11    12   ar
    31    12     7   ar
    32     5     1   ar
    33    25    20   ar
    34    18    13    1
    35    33    28   ar
    36    16    19    1
    37    26    27    1
@<TRIPOS>MOLECULE
*****
 33 37 0 0 0
SMALL
GASTEIGER

@<TRIPOS>ATOM
      1 C         142.2022  141.3338  165.2165 C.ar    1  UNL1        0.0889
      2 N         142.2442  141.9867  166.5663 N.ar    1  UNL1       -0.2427
      3 C         141.2539  141.2880  167.4502 C.ar    1  UNL1        0.0879
      4 S         140.5999  140.2033  166.6466 S.2     1  UNL1       -0.0693
      5 C         141.1860  140.2316  165.2662 C.ar    1  UNL1        0.0659
      6 F         145.5173  142.8626  160.4549 F       1  UNL1       -0.2042
      7 C         144.6885  142.4804  161.6453 C.ar    1  UNL1        0.1401
      8 C         145.3160  141.7415  162.7899 C.ar    1  UNL1        0.0297
      9 C         144.4872  141.3593  163.9804 C.ar    1  UNL1        0.0038
     10 C         143.0310  141.7160  164.0261 C.ar    1  UNL1        0.0183
     11 C         142.4036  142.4549  162.8815 C.ar    1  UNL1        0.0038
     12 C         143.2323  142.8371  161.6911 C.ar    1  UNL1        0.0297
     13 C         140.9678  141.6164  168.8856 C.3     1  UNL1        0.0493
     14 C         140.2870  142.9055  169.2387 C.3     1  UNL1        0.0236
     15 C         140.0009  143.2339  170.6741 C.3     1  UNL1        0.0690
     16 N         140.3957  142.2733  171.7562 N.3     1  UNL1       -0.2974
     17 C         141.0765  140.9842  171.4031 C.3     1  UNL1        0.0690
     18 C         141.3626  140.6557  169.9678 C.3     1  UNL1        0.0236
     19 H         139.5421  142.0277  172.2577 H       1  UNL1        0.1232
     20 C         140.8201  139.3181  164.1341 C.ar    1  UNL1        0.0932
     21 C         139.3868  138.9347  163.9130 C.ar    1  UNL1        0.0405
     22 C         139.0209  138.0211  162.7809 C.ar    1  UNL1        0.1034
     23 N         140.0882  137.4911  161.8699 N.ar    1  UNL1       -0.2120
     24 C         141.5214  137.8745  162.0910 C.ar    1  UNL1        0.2217
     25 N         141.8873  138.7880  163.2231 N.ar    1  UNL1       -0.2130
     26 N         142.5887  137.3444  161.1801 N.pl3   1  UNL1       -0.2679
     27 H         143.0611  136.5113  161.4078 H       1  UNL1        0.1565
     28 C         142.9361  138.0837  159.9220 C.ar    1  UNL1        0.1376
     29 C         143.5915  139.4307  160.0003 C.ar    1  UNL1        0.0552
     30 C         143.9390  140.1701  158.7423 C.ar    1  UNL1        0.1036
     31 N         143.6311  139.5624  157.4059 N.ar    1  UNL1       -0.2223
     32 C         142.9757  138.2154  157.3276 C.ar    1  UNL1        0.2001
     33 N         142.6282  137.4761  158.5856 N.ar    1  UNL1       -0.2088
@<TRIPOS>BOND
     1     6     7    1
     2     7     8   ar
     3     8     9   ar
     4     9    10   ar
     5    10     1    1
     6     1     2   ar
     7     2     3   ar
     8     3    13    1
     9    13    14    1
    10    14    15    1
    11    15    16    1
    12    16    17    1
    13    17    18    1
    14     3     4   ar
    15     4     5   ar
    16     5    20    1
    17    20    21   ar
    18    21    22   ar
    19    22    23   ar
    20    23    24   ar
    21    24    26    1
    22    26    28    1
    23    28    29   ar
    24    29    30   ar
    25    30    31   ar
    26    31    32   ar
    27    32    33   ar
    28    24    25   ar
    29    10    11   ar
    30    11    12   ar
    31    12     7   ar
    32     5     1   ar
    33    25    20   ar
    34    18    13    1
    35    33    28   ar
    36    16    19    1
    37    26    27    1
@<TRIPOS>MOLECULE
*****
 33 37 0 0 0
SMALL
GASTEIGER

@<TRIPOS>ATOM
      1 C         142.4201  142.3298  165.1740 C.ar    1  UNL1        0.0889
      2 N         142.9328  141.8363  166.4945 N.ar    1  UNL1       -0.2427
      3 C         141.8127  141.9231  167.4884 C.ar    1  UNL1        0.0879
      4 S         140.6077  142.4701  166.7821 S.2     1  UNL1       -0.0693
      5 C         140.9831  142.7214  165.3518 C.ar    1  UNL1        0.0659
      6 F         145.5652  142.6760  160.0761 F       1  UNL1       -0.2042
      7 C         144.7789  142.5894  161.3506 C.ar    1  UNL1        0.1401
      8 C         144.5078  143.8292  162.1502 C.ar    1  UNL1        0.0297
      9 C         143.7216  143.7426  163.4247 C.ar    1  UNL1        0.0038
     10 C         143.2064  142.4163  163.8995 C.ar    1  UNL1        0.0183
     11 C         143.4775  141.1766  163.0999 C.ar    1  UNL1        0.0038
     12 C         144.2638  141.2631  161.8254 C.ar    1  UNL1        0.0297
     13 C         141.8849  141.5315  168.9346 C.3     1  UNL1        0.0493
     14 C         142.8483  140.4704  169.3770 C.3     1  UNL1        0.0236
     15 C         142.9205  140.0789  170.8232 C.3     1  UNL1        0.0690
     16 N         142.0293  140.7483  171.8269 N.3     1  UNL1       -0.2974
     17 C         141.0659  141.8094  171.3844 C.3     1  UNL1        0.0690
     18 C         140.9936  142.2010  169.9383 C.3     1  UNL1        0.0236
     19 H         142.6395  141.1765  172.5231 H       1  UNL1        0.1232
     20 C         140.0801  143.2685  164.2863 C.ar    1  UNL1        0.0932
     21 C         139.8309  144.7452  164.1997 C.ar    1  UNL1        0.0405
     22 C         138.9278  145.2922  163.1342 C.ar    1  UNL1        0.1034
     23 N         138.2739  144.3626  162.1553 N.ar    1  UNL1       -0.2120
     24 C         138.5232  142.8860  162.2419 C.ar    1  UNL1        0.2217
     25 N         139.4262  142.3390  163.3074 N.ar    1  UNL1       -0.2130
     26 N         137.8693  141.9564  161.2630 N.pl3   1  UNL1       -0.2679
     27 H         137.1023  142.2646  160.7283 H       1  UNL1        0.1565
     28 C         138.3841  140.5571  161.0986 C.ar    1  UNL1        0.1376
     29 C         137.8526  139.4555  161.9669 C.ar    1  UNL1        0.0552
     30 C         138.3674  138.0562  161.8027 C.ar    1  UNL1        0.1036
     31 N         139.4138  137.7585  160.7700 N.ar    1  UNL1       -0.2223
     32 C         139.9454  138.8601  159.9016 C.ar    1  UNL1        0.2001
     33 N         139.4305  140.2594  160.0659 N.ar    1  UNL1       -0.2088
@<TRIPOS>BOND
     1     6     7    1
     2     7     8   ar
     3     8     9   ar
     4     9    10   ar
     5    10     1    1
     6     1     2   ar
     7     2     3   ar
     8     3    13    1
     9    13    14    1
    10    14    15    1
    11    15    16    1
    12    16    17    1
    13    17    18    1
    14     3     4   ar
    15     4     5   ar
    16     5    20    1
    17    20    21   ar
    18    21    22   ar
    19    22    23   ar
    20    23    24   ar
    21    24    26    1
    22    26    28    1
    23    28    29   ar
    24    29    30   ar
    25    30    31   ar
    26    31    32   ar
    27    32    33   ar
    28    24    25   ar
    29    10    11   ar
    30    11    12   ar
    31    12     7   ar
    32     5     1   ar
    33    25    20   ar
    34    18    13    1
    35    33    28   ar
    36    16    19    1
    37    26    27    1
@<TRIPOS>MOLECULE
*****
 33 37 0 0 0
SMALL
GASTEIGER

@<TRIPOS>ATOM
      1 C         140.3777  142.4550  165.3789 C.ar    1  UNL1        0.0889
      2 N         140.8023  142.6813  166.7996 N.ar    1  UNL1       -0.2427
      3 C         140.9468  141.3419  167.4593 C.ar    1  UNL1        0.0879
      4 S         140.6114  140.2878  166.4462 S.2     1  UNL1       -0.0693
      5 C         140.2597  140.9757  165.1605 C.ar    1  UNL1        0.0659
      6 F         139.3344  146.7183  161.2879 F       1  UNL1       -0.2042
      7 C         139.5952  145.6525  162.3107 C.ar    1  UNL1        0.1401
      8 C         140.9883  145.4247  162.8180 C.ar    1  UNL1        0.0297
      9 C         141.2491  144.3589  163.8407 C.ar    1  UNL1        0.0038
     10 C         140.1169  143.5208  164.3561 C.ar    1  UNL1        0.0183
     11 C         138.7238  143.7486  163.8488 C.ar    1  UNL1        0.0038
     12 C         138.4630  144.8145  162.8261 C.ar    1  UNL1        0.0297
     13 C         141.3549  141.0993  168.8821 C.3     1  UNL1        0.0493
     14 C         142.5338  140.2227  169.1851 C.3     1  UNL1        0.0236
     15 C         142.9420  139.9801  170.6079 C.3     1  UNL1        0.0690
     16 N         142.1713  140.6141  171.7277 N.3     1  UNL1       -0.2974
     17 C         140.9924  141.4906  171.4248 C.3     1  UNL1        0.0690
     18 C         140.5842  141.7333  170.0020 C.3     1  UNL1        0.0236
     19 H         142.8332  141.1829  172.2557 H       1  UNL1        0.1232
     20 C         139.8601  140.3025  163.8810 C.ar    1  UNL1        0.0932
     21 C         138.6551  139.4096  163.8478 C.ar    1  UNL1        0.0405
     22 C         138.2555  138.7364  162.5683 C.ar    1  UNL1        0.1034
     23 N         139.0608  138.9559  161.3220 N.ar    1  UNL1       -0.2120
     24 C         140.2657  139.8487  161.3552 C.ar    1  UNL1        0.2217
     25 N         140.6653  140.5220  162.6347 N.ar    1  UNL1       -0.2130
     26 N         141.0710  140.0683  160.1089 N.pl3   1  UNL1       -0.2679
     27 H         141.2760  139.3101  159.5154 H       1  UNL1        0.1565
     28 C         141.5641  141.4431  159.7670 C.ar    1  UNL1        0.1376
     29 C         140.6040  142.5947  159.7229 C.ar    1  UNL1        0.0552
     30 C         141.0970  143.9696  159.3810 C.ar    1  UNL1        0.1036
     31 N         142.5501  144.1927  159.0832 N.ar    1  UNL1       -0.2223
     32 C         143.5102  143.0410  159.1273 C.ar    1  UNL1        0.2001
     33 N         143.0172  141.6662  159.4693 N.ar    1  UNL1       -0.2088
@<TRIPOS>BOND
     1     6     7    1
     2     7     8   ar
     3     8     9   ar
     4     9    10   ar
     5    10     1    1
     6     1     2   ar
     7     2     3   ar
     8     3    13    1
     9    13    14    1
    10    14    15    1
    11    15    16    1
    12    16    17    1
    13    17    18    1
    14     3     4   ar
    15     4     5   ar
    16     5    20    1
    17    20    21   ar
    18    21    22   ar
    19    22    23   ar
    20    23    24   ar
    21    24    26    1
    22    26    28    1
    23    28    29   ar
    24    29    30   ar
    25    30    31   ar
    26    31    32   ar
    27    32    33   ar
    28    24    25   ar
    29    10    11   ar
    30    11    12   ar
    31    12     7   ar
    32     5     1   ar
    33    25    20   ar
    34    18    13    1
    35    33    28   ar
    36    16    19    1
    37    26    27    1
@<TRIPOS>MOLECULE
*****
 33 37 0 0 0
SMALL
GASTEIGER

@<TRIPOS>ATOM
      1 C         140.2301  141.2500  164.9496 C.ar    1  UNL1        0.0889
      2 N         139.8394  140.8410  166.3388 N.ar    1  UNL1       -0.2427
      3 C         140.8640  141.3874  167.2884 C.ar    1  UNL1        0.0879
      4 S         141.8880  142.1341  166.4860 S.2     1  UNL1       -0.0693
      5 C         141.4962  142.0491  165.0405 C.ar    1  UNL1        0.0659
      6 F         137.2516  139.9223  159.9131 F       1  UNL1       -0.2042
      7 C         137.9962  140.2542  161.1722 C.ar    1  UNL1        0.1401
      8 C         138.9798  139.2755  161.7421 C.ar    1  UNL1        0.0297
      9 C         139.7244  139.6074  163.0012 C.ar    1  UNL1        0.0038
     10 C         139.4855  140.9180  163.6905 C.ar    1  UNL1        0.0183
     11 C         138.5019  141.8967  163.1207 C.ar    1  UNL1        0.0038
     12 C         137.7573  141.5648  161.8615 C.ar    1  UNL1        0.0297
     13 C         140.8645  141.2170  168.7787 C.3     1  UNL1        0.0493
     14 C         141.7334  142.0914  169.6332 C.3     1  UNL1        0.0236
     15 C         141.7339  141.9211  171.1235 C.3     1  UNL1        0.0690
     16 N         140.8655  140.8762  171.7592 N.3     1  UNL1       -0.2974
     17 C         139.9966  140.0018  170.9047 C.3     1  UNL1        0.0690
     18 C         139.9961  140.1721  169.4144 C.3     1  UNL1        0.0236
     19 H         140.2465  141.3626  172.4077 H       1  UNL1        0.1232
     20 C         142.2400  142.6568  163.8883 C.ar    1  UNL1        0.0932
     21 C         143.6317  142.1975  163.5681 C.ar    1  UNL1        0.0405
     22 C         144.3755  142.8051  162.4159 C.ar    1  UNL1        0.1034
     23 N         143.7277  143.8719  161.5839 N.ar    1  UNL1       -0.2120
     24 C         142.3361  144.3312  161.9041 C.ar    1  UNL1        0.2217
     25 N         141.5923  143.7235  163.0563 N.ar    1  UNL1       -0.2130
     26 N         141.6883  145.3980  161.0721 N.pl3   1  UNL1       -0.2679
     27 H         141.5199  146.2882  161.4573 H       1  UNL1        0.1565
     28 C         141.2969  145.1084  159.6533 C.ar    1  UNL1        0.1376
     29 C         140.1615  144.1716  159.3648 C.ar    1  UNL1        0.0552
     30 C         139.7701  143.8820  157.9460 C.ar    1  UNL1        0.1036
     31 N         140.5141  144.5292  156.8157 N.ar    1  UNL1       -0.2223
     32 C         141.6496  145.4660  157.1042 C.ar    1  UNL1        0.2001
     33 N         142.0409  145.7556  158.5231 N.ar    1  UNL1       -0.2088
@<TRIPOS>BOND
     1     6     7    1
     2     7     8   ar
     3     8     9   ar
     4     9    10   ar
     5    10     1    1
     6     1     2   ar
     7     2     3   ar
     8     3    13    1
     9    13    14    1
    10    14    15    1
    11    15    16    1
    12    16    17    1
    13    17    18    1
    14     3     4   ar
    15     4     5   ar
    16     5    20    1
    17    20    21   ar
    18    21    22   ar
    19    22    23   ar
    20    23    24   ar
    21    24    26    1
    22    26    28    1
    23    28    29   ar
    24    29    30   ar
    25    30    31   ar
    26    31    32   ar
    27    32    33   ar
    28    24    25   ar
    29    10    11   ar
    30    11    12   ar
    31    12     7   ar
    32     5     1   ar
    33    25    20   ar
    34    18    13    1
    35    33    28   ar
    36    16    19    1
    37    26    27    1
@<TRIPOS>MOLECULE
*****
 33 37 0 0 0
SMALL
GASTEIGER

@<TRIPOS>ATOM
      1 C         141.0041  142.8218  165.4293 C.ar    1  UNL1        0.0889
      2 N         140.5673  142.8416  166.8642 N.ar    1  UNL1       -0.2427
      3 C         141.2370  141.6989  167.5684 C.ar    1  UNL1        0.0879
      4 S         142.0876  140.9729  166.5687 S.2     1  UNL1       -0.0693
      5 C         141.9436  141.6669  165.2467 C.ar    1  UNL1        0.0659
      6 F         139.2931  146.6843  161.1686 F       1  UNL1       -0.2042
      7 C         139.7208  145.7187  162.2338 C.ar    1  UNL1        0.1401
      8 C         141.1550  145.6709  162.6707 C.ar    1  UNL1        0.0297
      9 C         141.5827  144.7052  163.7359 C.ar    1  UNL1        0.0038
     10 C         140.5763  143.7874  164.3642 C.ar    1  UNL1        0.0183
     11 C         139.1422  143.8353  163.9272 C.ar    1  UNL1        0.0038
     12 C         138.7145  144.8009  162.8620 C.ar    1  UNL1        0.0297
     13 C         141.0830  141.3444  169.0177 C.3     1  UNL1        0.0493
     14 C         141.8565  142.0964  170.0599 C.3     1  UNL1        0.0236
     15 C         141.7026  141.7419  171.5093 C.3     1  UNL1        0.0690
     16 N         140.7752  140.6356  171.9164 N.3     1  UNL1       -0.2974
     17 C         140.0017  139.8836  170.8742 C.3     1  UNL1        0.0690
     18 C         140.1556  140.2380  169.4249 C.3     1  UNL1        0.0236
     19 H         140.0911  141.0442  172.5531 H       1  UNL1        0.1232
     20 C         142.6205  141.2748  163.9668 C.ar    1  UNL1        0.0932
     21 C         144.0550  141.6458  163.7327 C.ar    1  UNL1        0.0405
     22 C         144.7318  141.2537  162.4528 C.ar    1  UNL1        0.1034
     23 N         143.9742  140.4907  161.4069 N.ar    1  UNL1       -0.2120
     24 C         142.5398  140.1197  161.6410 C.ar    1  UNL1        0.2217
     25 N         141.8630  140.5118  162.9209 N.ar    1  UNL1       -0.2130
     26 N         141.7822  139.3567  160.5952 N.pl3   1  UNL1       -0.2679
     27 H         142.2690  138.8772  159.8864 H       1  UNL1        0.1565
     28 C         140.2829  139.3243  160.6292 C.ar    1  UNL1        0.1376
     29 C         139.5737  138.3054  161.4711 C.ar    1  UNL1        0.0552
     30 C         138.0744  138.2729  161.5052 C.ar    1  UNL1        0.1036
     31 N         137.2844  139.2593  160.6973 N.ar    1  UNL1       -0.2223
     32 C         137.9936  140.2783  159.8553 C.ar    1  UNL1        0.2001
     33 N         139.4929  140.3107  159.8213 N.ar    1  UNL1       -0.2088
@<TRIPOS>BOND
     1     6     7    1
     2     7     8   ar
     3     8     9   ar
     4     9    10   ar
     5    10     1    1
     6     1     2   ar
     7     2     3   ar
     8     3    13    1
     9    13    14    1
    10    14    15    1
    11    15    16    1
    12    16    17    1
    13    17    18    1
    14     3     4   ar
    15     4     5   ar
    16     5    20    1
    17    20    21   ar
    18    21    22   ar
    19    22    23   ar
    20    23    24   ar
    21    24    26    1
    22    26    28    1
    23    28    29   ar
    24    29    30   ar
    25    30    31   ar
    26    31    32   ar
    27    32    33   ar
    28    24    25   ar
    29    10    11   ar
    30    11    12   ar
    31    12     7   ar
    32     5     1   ar
    33    25    20   ar
    34    18    13    1
    35    33    28   ar
    36    16    19    1
    37    26    27    1
@<TRIPOS>MOLECULE
*****
 33 37 0 0 0
SMALL
GASTEIGER

@<TRIPOS>ATOM
      1 C         142.1676  140.3389  165.0603 C.ar    1  UNL1        0.0889
      2 N         141.8287  139.8229  166.4273 N.ar    1  UNL1       -0.2427
      3 C         141.7310  140.9975  167.3551 C.ar    1  UNL1        0.0879
      4 S         142.0095  142.2395  166.5615 S.2     1  UNL1       -0.0693
      5 C         142.2793  141.8324  165.1432 C.ar    1  UNL1        0.0659
      6 F         142.9405  137.0129  160.1266 F       1  UNL1       -0.2042
      7 C         142.7473  137.8444  161.3600 C.ar    1  UNL1        0.1401
      8 C         143.9312  138.4701  162.0358 C.ar    1  UNL1        0.0297
      9 C         143.7380  139.3016  163.2692 C.ar    1  UNL1        0.0038
     10 C         142.3608  139.5074  163.8269 C.ar    1  UNL1        0.0183
     11 C         141.1769  138.8817  163.1511 C.ar    1  UNL1        0.0038
     12 C         141.3701  138.0502  161.9177 C.ar    1  UNL1        0.0297
     13 C         141.4110  140.9401  168.8195 C.3     1  UNL1        0.0493
     14 C         142.1032  141.8660  169.7752 C.3     1  UNL1        0.0236
     15 C         141.7832  141.8087  171.2396 C.3     1  UNL1        0.0690
     16 N         140.7711  140.8254  171.7481 N.3     1  UNL1       -0.2974
     17 C         140.0789  139.8995  170.7923 C.3     1  UNL1        0.0690
     18 C         140.3988  139.9568  169.3281 C.3     1  UNL1        0.0236
     19 H         140.0425  141.3668  172.2133 H       1  UNL1        0.1232
     20 C         142.6038  142.7567  164.0072 C.ar    1  UNL1        0.0932
     21 C         144.0331  142.9958  163.6197 C.ar    1  UNL1        0.0405
     22 C         144.3577  143.9201  162.4838 C.ar    1  UNL1        0.1034
     23 N         143.2530  144.6053  161.7353 N.ar    1  UNL1       -0.2120
     24 C         141.8238  144.3662  162.1228 C.ar    1  UNL1        0.2217
     25 N         141.4993  143.4419  163.2588 N.ar    1  UNL1       -0.2130
     26 N         140.7191  145.0515  161.3744 N.pl3   1  UNL1       -0.2679
     27 H         140.4090  145.9411  161.6601 H       1  UNL1        0.1565
     28 C         140.0870  144.3812  160.1907 C.ar    1  UNL1        0.1376
     29 C         140.4405  144.8229  158.8015 C.ar    1  UNL1        0.0552
     30 C         139.8083  144.1527  157.6177 C.ar    1  UNL1        0.1036
     31 N         138.8227  143.0408  157.8232 N.ar    1  UNL1       -0.2223
     32 C         138.4691  142.5992  159.2125 C.ar    1  UNL1        0.2001
     33 N         139.1013  143.2694  160.3962 N.ar    1  UNL1       -0.2088
@<TRIPOS>BOND
     1     6     7    1
     2     7     8   ar
     3     8     9   ar
     4     9    10   ar
     5    10     1    1
     6     1     2   ar
     7     2     3   ar
     8     3    13    1
     9    13    14    1
    10    14    15    1
    11    15    16    1
    12    16    17    1
    13    17    18    1
    14     3     4   ar
    15     4     5   ar
    16     5    20    1
    17    20    21   ar
    18    21    22   ar
    19    22    23   ar
    20    23    24   ar
    21    24    26    1
    22    26    28    1
    23    28    29   ar
    24    29    30   ar
    25    30    31   ar
    26    31    32   ar
    27    32    33   ar
    28    24    25   ar
    29    10    11   ar
    30    11    12   ar
    31    12     7   ar
    32     5     1   ar
    33    25    20   ar
    34    18    13    1
    35    33    28   ar
    36    16    19    1
    37    26    27    1
@<TRIPOS>MOLECULE
*****
 33 37 0 0 0
SMALL
GASTEIGER

@<TRIPOS>ATOM
      1 C         140.3687  142.4373  165.3796 C.ar    1  UNL1        0.0889
      2 N         140.8047  142.6850  166.7933 N.ar    1  UNL1       -0.2427
      3 C         140.9276  141.3571  167.4800 C.ar    1  UNL1        0.0879
      4 S         140.5675  140.2886  166.4907 S.2     1  UNL1       -0.0693
      5 C         140.2221  140.9562  165.1926 C.ar    1  UNL1        0.0659
      6 F         139.3839  146.6337  161.2059 F       1  UNL1       -0.2042
      7 C         139.6301  145.5846  162.2493 C.ar    1  UNL1        0.1401
      8 C         138.4721  144.8901  162.9024 C.ar    1  UNL1        0.0297
      9 C         138.7183  143.8410  163.9458 C.ar    1  UNL1        0.0038
     10 C         140.1225  143.4864  164.3362 C.ar    1  UNL1        0.0183
     11 C         141.2805  144.1809  163.6831 C.ar    1  UNL1        0.0038
     12 C         141.0343  145.2300  162.6397 C.ar    1  UNL1        0.0297
     13 C         141.3384  141.1364  168.9056 C.3     1  UNL1        0.0493
     14 C         142.5094  140.2535  169.2206 C.3     1  UNL1        0.0236
     15 C         142.9202  140.0328  170.6462 C.3     1  UNL1        0.0690
     16 N         142.1601  140.6950  171.7569 N.3     1  UNL1       -0.2974
     17 C         140.9891  141.5779  171.4419 C.3     1  UNL1        0.0690
     18 C         140.5783  141.7986  170.0164 C.3     1  UNL1        0.0236
     19 H         142.8297  141.2665  172.2720 H       1  UNL1        0.1232
     20 C         139.8035  140.2642  163.9293 C.ar    1  UNL1        0.0932
     21 C         138.3894  140.3818  163.4429 C.ar    1  UNL1        0.0405
     22 C         137.9708  139.6898  162.1796 C.ar    1  UNL1        0.1034
     23 N         138.9663  138.8803  161.4026 N.ar    1  UNL1       -0.2120
     24 C         140.3804  138.7628  161.8890 C.ar    1  UNL1        0.2217
     25 N         140.7989  139.4547  163.1523 N.ar    1  UNL1       -0.2130
     26 N         141.3759  137.9532  161.1121 N.pl3   1  UNL1       -0.2679
     27 H         141.4914  136.9953  161.3078 H       1  UNL1        0.1565
     28 C         142.1954  138.6032  160.0369 C.ar    1  UNL1        0.1376
     29 C         142.1239  138.0935  158.6280 C.ar    1  UNL1        0.0552
     30 C         142.9434  138.7434  157.5527 C.ar    1  UNL1        0.1036
     31 N         143.8343  139.9031  157.8864 N.ar    1  UNL1       -0.2223
     32 C         143.9058  140.4128  159.2954 C.ar    1  UNL1        0.2001
     33 N         143.0863  139.7629  160.3706 N.ar    1  UNL1       -0.2088
@<TRIPOS>BOND
     1     6     7    1
     2     7     8   ar
     3     8     9   ar
     4     9    10   ar
     5    10     1    1
     6     1     2   ar
     7     2     3   ar
     8     3    13    1
     9    13    14    1
    10    14    15    1
    11    15    16    1
    12    16    17    1
    13    17    18    1
    14     3     4   ar
    15     4     5   ar
    16     5    20    1
    17    20    21   ar
    18    21    22   ar
    19    22    23   ar
    20    23    24   ar
    21    24    26    1
    22    26    28    1
    23    28    29   ar
    24    29    30   ar
    25    30    31   ar
    26    31    32   ar
    27    32    33   ar
    28    24    25   ar
    29    10    11   ar
    30    11    12   ar
    31    12     7   ar
    32     5     1   ar
    33    25    20   ar
    34    18    13    1
    35    33    28   ar
    36    16    19    1
    37    26    27    1
