@<TRIPOS>MOLECULE
*****
 29 31 0 0 0
SMALL
GASTEIGER

@<TRIPOS>ATOM
      1 C         142.8945  142.2326  169.9420 C.ar    1  UNL1       -0.0001
      2 C         142.0994  141.8841  171.1652 C.ar    1  UNL1       -0.0003
      3 C         140.8342  141.0887  171.0358 C.ar    1  UNL1       -0.0029
      4 C         140.3641  140.6420  169.6833 C.ar    1  UNL1       -0.0047
      5 C         141.1592  140.9906  168.4601 C.ar    1  UNL1       -0.0047
      6 C         142.4244  141.7859  168.5894 C.ar    1  UNL1       -0.0029
      7 C         140.4521  140.4163  167.2683 C.3     1  UNL1        0.1205
      8 N         139.2199  139.7128  167.7550 N.am    1  UNL1       -0.2679
      9 C         138.2180  138.9957  166.8995 C.2     1  UNL1        0.2495
     10 O         137.0285  138.3353  167.5310 O.2     1  UNL1       -0.2699
     11 C         139.1656  139.8523  169.2476 C.3     1  UNL1        0.1205
     12 C         138.4056  138.9390  165.4123 C.ar    1  UNL1        0.0535
     13 C         138.9131  137.6832  164.7677 C.ar    1  UNL1        0.0045
     14 C         139.1008  137.6265  163.2806 C.ar    1  UNL1        0.0001
     15 C         138.7809  138.8257  162.4380 C.ar    1  UNL1        0.0039
     16 C         138.2735  140.0814  163.0826 C.ar    1  UNL1        0.0716
     17 C         138.0858  140.1381  164.5698 C.ar    1  UNL1        0.0084
     18 C         137.9536  141.2805  162.2401 C.3     1  UNL1        0.4186
     19 F         137.6338  142.4796  161.3975 F       1  UNL1       -0.1659
     20 F         136.8801  141.6758  163.2102 F       1  UNL1       -0.1659
     21 F         139.0272  140.8851  161.2700 F       1  UNL1       -0.1659
     22 C         144.2757  144.0861  171.1280 C.2     1  UNL1        0.0598
     23 C         144.1597  143.0279  170.0713 C.2     1  UNL1        0.0047
     24 O         146.8379  144.3131  170.7627 O.2     1  UNL1       -0.2681
     25 C         145.5409  144.8814  171.2574 C.2     1  UNL1        0.2679
     26 N         145.5091  146.2452  171.8814 N.am    1  UNL1       -0.1934
     27 O         146.7743  147.0405  172.0107 O.3     1  UNL1       -0.2949
     28 H         144.6578  146.6182  172.2060 H       1  UNL1        0.1825
     29 H         147.5148  146.5318  171.6448 H       1  UNL1        0.2414
@<TRIPOS>BOND
     1    24    25    2
     2    25    22    1
     3    22    23    2
     4    23     1    1
     5     1     2   ar
     6     2     3   ar
     7     3     4   ar
     8     4     5   ar
     9     5     6   ar
    10     5     7    1
    11     7     8    1
    12     8     9   am
    13     9    10    2
    14     9    12    1
    15    12    13   ar
    16    13    14   ar
    17    14    15   ar
    18    15    16   ar
    19    16    18    1
    20    18    19    1
    21    18    20    1
    22    18    21    1
    23    16    17   ar
    24     8    11    1
    25    25    26   am
    26    26    27    1
    27     6     1   ar
    28    17    12   ar
    29    11     4    1
    30    26    28    1
    31    27    29    1
@<TRIPOS>MOLECULE
*****
 29 31 0 0 0
SMALL
GASTEIGER

@<TRIPOS>ATOM
      1 C         139.0875  140.3913  169.7347 C.ar    1  UNL1       -0.0001
      2 C         139.5643  141.7416  170.1809 C.ar    1  UNL1       -0.0003
      3 C         140.2675  142.6463  169.2129 C.ar    1  UNL1       -0.0029
      4 C         140.4939  142.2006  167.7986 C.ar    1  UNL1       -0.0047
      5 C         140.0170  140.8503  167.3524 C.ar    1  UNL1       -0.0047
      6 C         139.3138  139.9456  168.3204 C.ar    1  UNL1       -0.0029
      7 C         140.3800  140.6850  165.9063 C.3     1  UNL1        0.1205
      8 N         141.0813  141.9332  165.4589 N.am    1  UNL1       -0.2679
      9 C         141.6180  142.1983  164.0835 C.2     1  UNL1        0.2495
     10 O         142.2992  143.5002  163.7823 O.2     1  UNL1       -0.2699
     11 C         141.1516  142.8699  166.6284 C.3     1  UNL1        0.1205
     12 C         141.4733  141.1614  163.0093 C.ar    1  UNL1        0.0535
     13 C         140.2463  141.1413  162.1466 C.ar    1  UNL1        0.0045
     14 C         140.1017  140.1044  161.0724 C.ar    1  UNL1        0.0001
     15 C         141.1840  139.0875  160.8610 C.ar    1  UNL1        0.0039
     16 C         142.4109  139.1076  161.7237 C.ar    1  UNL1        0.0716
     17 C         142.5555  140.1445  162.7979 C.ar    1  UNL1        0.0084
     18 C         143.4931  138.0907  161.5122 C.3     1  UNL1        0.4186
     19 F         144.5754  137.0738  161.3007 F       1  UNL1       -0.1659
     20 F         144.4315  138.9172  162.3406 F       1  UNL1       -0.1659
     21 F         142.5546  137.2643  160.6838 F       1  UNL1       -0.1659
     22 C         136.9351  139.1554  170.5026 C.2     1  UNL1        0.0598
     23 C         138.3843  139.4866  170.7027 C.2     1  UNL1        0.0047
     24 O         136.5899  136.7954  171.5328 O.2     1  UNL1       -0.2681
     25 C         136.2319  138.2507  171.4706 C.2     1  UNL1        0.2679
     26 N         135.1706  138.8014  172.3765 N.am    1  UNL1       -0.1934
     27 O         134.4674  137.8967  173.3445 O.3     1  UNL1       -0.2949
     28 H         134.9356  139.7566  172.3357 H       1  UNL1        0.1825
     29 H         134.8154  136.9956  173.2562 H       1  UNL1        0.2414
@<TRIPOS>BOND
     1    24    25    2
     2    25    22    1
     3    22    23    2
     4    23     1    1
     5     1     2   ar
     6     2     3   ar
     7     3     4   ar
     8     4     5   ar
     9     5     6   ar
    10     5     7    1
    11     7     8    1
    12     8     9   am
    13     9    10    2
    14     9    12    1
    15    12    13   ar
    16    13    14   ar
    17    14    15   ar
    18    15    16   ar
    19    16    18    1
    20    18    19    1
    21    18    20    1
    22    18    21    1
    23    16    17   ar
    24     8    11    1
    25    25    26   am
    26    26    27    1
    27     6     1   ar
    28    17    12   ar
    29    11     4    1
    30    26    28    1
    31    27    29    1
@<TRIPOS>MOLECULE
*****
 29 31 0 0 0
SMALL
GASTEIGER

@<TRIPOS>ATOM
      1 C         139.1067  140.4165  169.6768 C.ar    1  UNL1       -0.0001
      2 C         139.6491  141.7696  170.0301 C.ar    1  UNL1       -0.0003
      3 C         140.3566  142.5887  168.9916 C.ar    1  UNL1       -0.0029
      4 C         140.5217  142.0547  167.5997 C.ar    1  UNL1       -0.0047
      5 C         139.9794  140.7016  167.2463 C.ar    1  UNL1       -0.0047
      6 C         139.2719  139.8825  168.2848 C.ar    1  UNL1       -0.0029
      7 C         140.2910  140.4399  165.8025 C.3     1  UNL1        0.1205
      8 N         141.0259  141.6313  165.2636 N.am    1  UNL1       -0.2679
      9 C         141.5298  141.7959  163.8603 C.2     1  UNL1        0.2495
     10 O         142.2513  143.0500  163.4648 O.2     1  UNL1       -0.2699
     11 C         141.1685  142.6293  166.3743 C.3     1  UNL1        0.1205
     12 C         141.3120  140.7063  162.8526 C.ar    1  UNL1        0.0535
     13 C         142.4321  140.2875  161.9471 C.ar    1  UNL1        0.0045
     14 C         142.2143  139.1979  160.9394 C.ar    1  UNL1        0.0001
     15 C         140.8765  138.5272  160.8373 C.ar    1  UNL1        0.0039
     16 C         139.7564  138.9461  161.7428 C.ar    1  UNL1        0.0716
     17 C         139.9742  140.0357  162.7505 C.ar    1  UNL1        0.0084
     18 C         138.4187  138.2754  161.6407 C.3     1  UNL1        0.4186
     19 F         137.0808  137.6047  161.5386 F       1  UNL1       -0.1659
     20 F         138.0647  139.1581  160.4807 F       1  UNL1       -0.1659
     21 F         138.7727  137.3927  162.8007 F       1  UNL1       -0.1659
     22 C         137.0340  139.0444  170.4322 C.2     1  UNL1        0.0598
     23 C         138.3992  139.5975  170.7153 C.2     1  UNL1        0.0047
     24 O         136.7767  136.8230  171.7547 O.2     1  UNL1       -0.2681
     25 C         136.3265  138.2253  171.4708 C.2     1  UNL1        0.2679
     26 N         135.1687  138.8087  172.2254 N.am    1  UNL1       -0.1934
     27 O         134.4612  137.9896  173.2639 O.3     1  UNL1       -0.2949
     28 H         134.8732  139.7291  172.0390 H       1  UNL1        0.1825
     29 H         134.8747  137.1141  173.3221 H       1  UNL1        0.2414
@<TRIPOS>BOND
     1    24    25    2
     2    25    22    1
     3    22    23    2
     4    23     1    1
     5     1     2   ar
     6     2     3   ar
     7     3     4   ar
     8     4     5   ar
     9     5     6   ar
    10     5     7    1
    11     7     8    1
    12     8     9   am
    13     9    10    2
    14     9    12    1
    15    12    13   ar
    16    13    14   ar
    17    14    15   ar
    18    15    16   ar
    19    16    18    1
    20    18    19    1
    21    18    20    1
    22    18    21    1
    23    16    17   ar
    24     8    11    1
    25    25    26   am
    26    26    27    1
    27     6     1   ar
    28    17    12   ar
    29    11     4    1
    30    26    28    1
    31    27    29    1
@<TRIPOS>MOLECULE
*****
 29 31 0 0 0
SMALL
GASTEIGER

@<TRIPOS>ATOM
      1 C         142.3120  143.6327  159.2681 C.ar    1  UNL1       -0.0001
      2 C         141.5928  144.9304  159.0479 C.ar    1  UNL1       -0.0003
      3 C         140.6939  145.4803  160.1155 C.ar    1  UNL1       -0.0029
      4 C         140.5143  144.7324  161.4032 C.ar    1  UNL1       -0.0047
      5 C         141.2336  143.4347  161.6234 C.ar    1  UNL1       -0.0047
      6 C         142.1324  142.8848  160.5559 C.ar    1  UNL1       -0.0029
      7 C         140.8637  142.9249  162.9849 C.3     1  UNL1        0.1205
      8 N         139.9158  143.9076  163.6060 N.am    1  UNL1       -0.2679
      9 C         139.2931  143.7932  164.9659 C.2     1  UNL1        0.2495
     10 O         138.3589  144.8600  165.4551 O.2     1  UNL1       -0.2699
     11 C         139.6999  145.0247  162.6285 C.3     1  UNL1        0.1205
     12 C         139.6047  142.6122  165.8366 C.ar    1  UNL1        0.0535
     13 C         140.4633  142.7840  167.0545 C.ar    1  UNL1        0.0045
     14 C         140.7749  141.6030  167.9252 C.ar    1  UNL1        0.0001
     15 C         140.2278  140.2501  167.5779 C.ar    1  UNL1        0.0039
     16 C         139.3693  140.0783  166.3600 C.ar    1  UNL1        0.0716
     17 C         139.0577  141.2594  165.4893 C.ar    1  UNL1        0.0084
     18 C         138.8223  138.7255  166.0127 C.3     1  UNL1        0.4186
     19 F         138.2752  137.3726  165.6655 F       1  UNL1       -0.1659
     20 F         140.1455  138.3429  165.4190 F       1  UNL1       -0.1659
     21 F         137.4990  139.1082  166.6065 F       1  UNL1       -0.1659
     22 C         144.3878  142.2320  158.5759 C.2     1  UNL1        0.0598
     23 C         143.2109  143.0828  158.2006 C.2     1  UNL1        0.0047
     24 O         146.3430  142.5530  156.8954 O.2     1  UNL1       -0.2681
     25 C         145.2867  141.6822  157.5084 C.2     1  UNL1        0.2679
     26 N         145.1292  140.2614  157.0538 N.am    1  UNL1       -0.1934
     27 O         146.0281  139.7115  155.9862 O.3     1  UNL1       -0.2949
     28 H         144.4359  139.6898  157.4561 H       1  UNL1        0.1825
     29 H         146.6491  140.3996  155.7003 H       1  UNL1        0.2414
@<TRIPOS>BOND
     1    24    25    2
     2    25    22    1
     3    22    23    2
     4    23     1    1
     5     1     2   ar
     6     2     3   ar
     7     3     4   ar
     8     4     5   ar
     9     5     6   ar
    10     5     7    1
    11     7     8    1
    12     8     9   am
    13     9    10    2
    14     9    12    1
    15    12    13   ar
    16    13    14   ar
    17    14    15   ar
    18    15    16   ar
    19    16    18    1
    20    18    19    1
    21    18    20    1
    22    18    21    1
    23    16    17   ar
    24     8    11    1
    25    25    26   am
    26    26    27    1
    27     6     1   ar
    28    17    12   ar
    29    11     4    1
    30    26    28    1
    31    27    29    1
@<TRIPOS>MOLECULE
*****
 29 31 0 0 0
SMALL
GASTEIGER

@<TRIPOS>ATOM
      1 C         142.2276  139.2257  169.5997 C.ar    1  UNL1       -0.0001
      2 C         140.8832  139.7386  170.0235 C.ar    1  UNL1       -0.0003
      3 C         139.9793  140.3918  169.0203 C.ar    1  UNL1       -0.0029
      4 C         140.4197  140.5320  167.5934 C.ar    1  UNL1       -0.0047
      5 C         141.7640  140.0191  167.1695 C.ar    1  UNL1       -0.0047
      6 C         142.6680  139.3659  168.1727 C.ar    1  UNL1       -0.0029
      7 C         141.9250  140.2962  165.7041 C.3     1  UNL1        0.1205
      8 N         140.6801  140.9804  165.2223 N.am    1  UNL1       -0.2679
      9 C         140.4125  141.4385  163.8192 C.2     1  UNL1        0.2495
     10 O         139.1145  142.1117  163.4848 O.2     1  UNL1       -0.2699
     11 C         139.7498  141.1261  166.3899 C.3     1  UNL1        0.1205
     12 C         141.4429  141.2233  162.7506 C.ar    1  UNL1        0.0535
     13 C         142.2347  142.3850  162.2275 C.ar    1  UNL1        0.0045
     14 C         143.2652  142.1698  161.1589 C.ar    1  UNL1        0.0001
     15 C         143.5038  140.7930  160.6134 C.ar    1  UNL1        0.0039
     16 C         142.7120  139.6314  161.1366 C.ar    1  UNL1        0.0716
     17 C         141.6816  139.8466  162.2052 C.ar    1  UNL1        0.0084
     18 C         142.9506  138.2546  160.5911 C.3     1  UNL1        0.4186
     19 F         143.1893  136.8778  160.0457 F       1  UNL1       -0.1659
     20 F         141.4698  138.0329  160.5030 F       1  UNL1       -0.1659
     21 F         144.4316  138.4765  160.6793 F       1  UNL1       -0.1659
     22 C         143.5937  137.1616  170.3892 C.2     1  UNL1        0.0598
     23 C         143.1315  138.5725  170.6028 C.2     1  UNL1        0.0047
     24 O         145.8070  137.1470  171.7497 O.2     1  UNL1       -0.2681
     25 C         144.4976  136.5085  171.3923 C.2     1  UNL1        0.2679
     26 N         144.0920  135.2167  172.0381 N.am    1  UNL1       -0.1934
     27 O         144.9960  134.5635  173.0413 O.3     1  UNL1       -0.2949
     28 H         143.2326  134.7976  171.8036 H       1  UNL1        0.1825
     29 H         145.7945  135.1022  173.1560 H       1  UNL1        0.2414
@<TRIPOS>BOND
     1    24    25    2
     2    25    22    1
     3    22    23    2
     4    23     1    1
     5     1     2   ar
     6     2     3   ar
     7     3     4   ar
     8     4     5   ar
     9     5     6   ar
    10     5     7    1
    11     7     8    1
    12     8     9   am
    13     9    10    2
    14     9    12    1
    15    12    13   ar
    16    13    14   ar
    17    14    15   ar
    18    15    16   ar
    19    16    18    1
    20    18    19    1
    21    18    20    1
    22    18    21    1
    23    16    17   ar
    24     8    11    1
    25    25    26   am
    26    26    27    1
    27     6     1   ar
    28    17    12   ar
    29    11     4    1
    30    26    28    1
    31    27    29    1
@<TRIPOS>MOLECULE
*****
 29 31 0 0 0
SMALL
GASTEIGER

@<TRIPOS>ATOM
      1 C         140.8634  139.9220  158.0352 C.ar    1  UNL1       -0.0001
      2 C         140.0862  141.0278  157.3847 C.ar    1  UNL1       -0.0003
      3 C         139.2603  141.9579  158.2231 C.ar    1  UNL1       -0.0029
      4 C         139.2117  141.7822  159.7119 C.ar    1  UNL1       -0.0047
      5 C         139.9888  140.6764  160.3624 C.ar    1  UNL1       -0.0047
      6 C         140.8147  139.7463  159.5240 C.ar    1  UNL1       -0.0029
      7 C         139.7488  140.7489  161.8414 C.3     1  UNL1        0.1205
      8 N         138.8233  141.8995  162.1049 N.am    1  UNL1       -0.2679
      9 C         138.3184  142.3351  163.4486 C.2     1  UNL1        0.2495
     10 O         137.3929  143.5105  163.5570 O.2     1  UNL1       -0.2699
     11 C         138.4913  142.5381  160.7888 C.3     1  UNL1        0.1205
     12 C         138.7390  141.5952  164.6837 C.ar    1  UNL1        0.0535
     13 C         139.7525  142.1983  165.6107 C.ar    1  UNL1        0.0045
     14 C         140.1731  141.4584  166.8458 C.ar    1  UNL1        0.0001
     15 C         139.5802  140.1154  167.1541 C.ar    1  UNL1        0.0039
     16 C         138.5668  139.5124  166.2271 C.ar    1  UNL1        0.0716
     17 C         138.1461  140.2523  164.9920 C.ar    1  UNL1        0.0084
     18 C         137.9739  138.1695  166.5354 C.3     1  UNL1        0.4186
     19 F         137.3810  136.8265  166.8437 F       1  UNL1       -0.1659
     20 F         138.5551  137.6215  165.2658 F       1  UNL1       -0.1659
     21 F         137.3928  138.7175  167.8051 F       1  UNL1       -0.1659
     22 C         142.1756  137.6950  157.7727 C.2     1  UNL1        0.0598
     23 C         141.6892  138.9919  157.1968 C.2     1  UNL1        0.0047
     24 O         142.7900  135.2829  157.0284 O.2     1  UNL1       -0.2681
     25 C         143.0014  136.7649  156.9343 C.2     1  UNL1        0.2679
     26 N         144.0387  137.3169  156.0019 N.am    1  UNL1       -0.1934
     27 O         144.8646  136.3868  155.1635 O.3     1  UNL1       -0.2949
     28 H         144.1775  138.2896  155.9402 H       1  UNL1        0.1825
     29 H         144.6030  135.4704  155.3441 H       1  UNL1        0.2414
@<TRIPOS>BOND
     1    24    25    2
     2    25    22    1
     3    22    23    2
     4    23     1    1
     5     1     2   ar
     6     2     3   ar
     7     3     4   ar
     8     4     5   ar
     9     5     6   ar
    10     5     7    1
    11     7     8    1
    12     8     9   am
    13     9    10    2
    14     9    12    1
    15    12    13   ar
    16    13    14   ar
    17    14    15   ar
    18    15    16   ar
    19    16    18    1
    20    18    19    1
    21    18    20    1
    22    18    21    1
    23    16    17   ar
    24     8    11    1
    25    25    26   am
    26    26    27    1
    27     6     1   ar
    28    17    12   ar
    29    11     4    1
    30    26    28    1
    31    27    29    1
@<TRIPOS>MOLECULE
*****
 29 31 0 0 0
SMALL
GASTEIGER

@<TRIPOS>ATOM
      1 C         140.7044  138.8150  161.0458 C.ar    1  UNL1       -0.0001
      2 C         139.3644  138.1415  161.0186 C.ar    1  UNL1       -0.0003
      3 C         138.5640  138.0126  162.2806 C.ar    1  UNL1       -0.0029
      4 C         139.1035  138.5574  163.5698 C.ar    1  UNL1       -0.0047
      5 C         140.4435  139.2310  163.5970 C.ar    1  UNL1       -0.0047
      6 C         141.2439  139.3598  162.3350 C.ar    1  UNL1       -0.0029
      7 C         140.7144  139.6676  165.0063 C.3     1  UNL1        0.1205
      8 N         139.5418  139.2638  165.8501 N.am    1  UNL1       -0.2679
      9 C         139.3911  139.5039  167.3231 C.2     1  UNL1        0.2495
     10 O         138.1554  139.0407  168.0360 O.2     1  UNL1       -0.2699
     11 C         138.5462  138.5777  164.9623 C.3     1  UNL1        0.1205
     12 C         140.4763  140.2073  168.0832 C.ar    1  UNL1        0.0535
     13 C         141.7817  139.5147  168.3405 C.ar    1  UNL1        0.0045
     14 C         142.8669  140.2182  169.1006 C.ar    1  UNL1        0.0001
     15 C         142.6466  141.6142  169.6032 C.ar    1  UNL1        0.0039
     16 C         141.3412  142.3067  169.3459 C.ar    1  UNL1        0.0716
     17 C         140.2560  141.6033  168.5859 C.ar    1  UNL1        0.0084
     18 C         141.1209  143.7027  169.8486 C.3     1  UNL1        0.4186
     19 F         140.9006  145.0987  170.3513 F       1  UNL1       -0.1659
     20 F         142.3893  143.6162  170.6446 F       1  UNL1       -0.1659
     21 F         139.8524  143.7892  169.0525 F       1  UNL1       -0.1659
     22 C         142.7776  139.7376  159.7806 C.2     1  UNL1        0.0598
     23 C         141.5048  138.9438  159.7837 C.2     1  UNL1        0.0047
     24 O         143.5419  138.7727  157.4926 O.2     1  UNL1       -0.2681
     25 C         143.5780  139.8664  158.5185 C.2     1  UNL1        0.2679
     26 N         144.4145  141.0889  158.2825 N.am    1  UNL1       -0.1934
     27 O         145.2149  141.2177  157.0204 O.3     1  UNL1       -0.2949
     28 H         144.4382  141.8067  158.9558 H       1  UNL1        0.1825
     29 H         145.0803  140.4302  156.4704 H       1  UNL1        0.2414
@<TRIPOS>BOND
     1    24    25    2
     2    25    22    1
     3    22    23    2
     4    23     1    1
     5     1     2   ar
     6     2     3   ar
     7     3     4   ar
     8     4     5   ar
     9     5     6   ar
    10     5     7    1
    11     7     8    1
    12     8     9   am
    13     9    10    2
    14     9    12    1
    15    12    13   ar
    16    13    14   ar
    17    14    15   ar
    18    15    16   ar
    19    16    18    1
    20    18    19    1
    21    18    20    1
    22    18    21    1
    23    16    17   ar
    24     8    11    1
    25    25    26   am
    26    26    27    1
    27     6     1   ar
    28    17    12   ar
    29    11     4    1
    30    26    28    1
    31    27    29    1
@<TRIPOS>MOLECULE
*****
 29 31 0 0 0
SMALL
GASTEIGER

@<TRIPOS>ATOM
      1 C         140.5953  139.8518  166.7177 C.ar    1  UNL1       -0.0001
      2 C         139.1219  139.6990  166.9536 C.ar    1  UNL1       -0.0003
      3 C         138.1810  139.6108  165.7887 C.ar    1  UNL1       -0.0029
      4 C         138.7135  139.6756  164.3880 C.ar    1  UNL1       -0.0047
      5 C         140.1869  139.8285  164.1521 C.ar    1  UNL1       -0.0047
      6 C         141.1278  139.9166  165.3170 C.ar    1  UNL1       -0.0029
      7 C         140.4180  139.8630  162.6703 C.3     1  UNL1        0.1205
      8 N         139.0874  139.7313  161.9905 N.am    1  UNL1       -0.2679
      9 C         138.8516  139.7179  160.5092 C.2     1  UNL1        0.2495
     10 O         137.4577  139.5787  159.9729 O.2     1  UNL1       -0.2699
     11 C         138.0340  139.6156  163.0521 C.3     1  UNL1        0.1205
     12 C         140.0098  139.8435  159.5642 C.ar    1  UNL1        0.0535
     13 C         140.4697  141.1997  159.1177 C.ar    1  UNL1        0.0045
     14 C         141.6278  141.3254  158.1727 C.ar    1  UNL1        0.0001
     15 C         142.3260  140.0949  157.6743 C.ar    1  UNL1        0.0039
     16 C         141.8661  138.7388  158.1208 C.ar    1  UNL1        0.0716
     17 C         140.7080  138.6131  159.0658 C.ar    1  UNL1        0.0084
     18 C         142.5643  137.5084  157.6224 C.3     1  UNL1        0.4186
     19 F         143.2626  136.2778  157.1240 F       1  UNL1       -0.1659
     20 F         142.1737  137.8562  156.2166 F       1  UNL1       -0.1659
     21 F         142.9550  137.1606  159.0283 F       1  UNL1       -0.1659
     22 C         140.9962  139.9822  169.2814 C.2     1  UNL1        0.0598
     23 C         141.5362  139.9399  167.8826 C.2     1  UNL1        0.0047
     24 O         141.6475  141.0154  171.5744 O.2     1  UNL1       -0.2681
     25 C         141.9371  140.0703  170.4462 C.2     1  UNL1        0.2679
     26 N         143.1676  139.2132  170.4829 N.am    1  UNL1       -0.1934
     27 O         144.1085  139.3013  171.6478 O.3     1  UNL1       -0.2949
     28 H         143.3577  138.5929  169.7424 H       1  UNL1        0.1825
     29 H         143.7763  139.9547  172.2831 H       1  UNL1        0.2414
@<TRIPOS>BOND
     1    24    25    2
     2    25    22    1
     3    22    23    2
     4    23     1    1
     5     1     2   ar
     6     2     3   ar
     7     3     4   ar
     8     4     5   ar
     9     5     6   ar
    10     5     7    1
    11     7     8    1
    12     8     9   am
    13     9    10    2
    14     9    12    1
    15    12    13   ar
    16    13    14   ar
    17    14    15   ar
    18    15    16   ar
    19    16    18    1
    20    18    19    1
    21    18    20    1
    22    18    21    1
    23    16    17   ar
    24     8    11    1
    25    25    26   am
    26    26    27    1
    27     6     1   ar
    28    17    12   ar
    29    11     4    1
    30    26    28    1
    31    27    29    1
@<TRIPOS>MOLECULE
*****
 29 31 0 0 0
SMALL
GASTEIGER

@<TRIPOS>ATOM
      1 C         143.2559  142.2932  169.8816 C.ar    1  UNL1       -0.0001
      2 C         142.4063  141.8530  171.0367 C.ar    1  UNL1       -0.0003
      3 C         141.1321  141.1018  170.7871 C.ar    1  UNL1       -0.0029
      4 C         140.7076  140.7908  169.3824 C.ar    1  UNL1       -0.0047
      5 C         141.5573  141.2311  168.2274 C.ar    1  UNL1       -0.0047
      6 C         142.8314  141.9822  168.4770 C.ar    1  UNL1       -0.0029
      7 C         140.8872  140.7839  166.9620 C.3     1  UNL1        0.1205
      8 N         139.6234  140.0673  167.3351 N.am    1  UNL1       -0.2679
      9 C         138.6426  139.4540  166.3800 C.2     1  UNL1        0.2495
     10 O         137.4165  138.7662  166.9028 O.2     1  UNL1       -0.2699
     11 C         139.5124  140.0716  168.8310 C.3     1  UNL1        0.1205
     12 C         138.8881  139.5287  164.9021 C.ar    1  UNL1        0.0535
     13 C         138.0072  140.3812  164.0376 C.ar    1  UNL1        0.0045
     14 C         138.2526  140.4558  162.5597 C.ar    1  UNL1        0.0001
     15 C         139.3791  139.6779  161.9464 C.ar    1  UNL1        0.0039
     16 C         140.2599  138.8255  162.8108 C.ar    1  UNL1        0.0716
     17 C         140.0144  138.7509  164.2887 C.ar    1  UNL1        0.0084
     18 C         141.3863  138.0477  162.1974 C.3     1  UNL1        0.4186
     19 F         142.5127  137.2698  161.5840 F       1  UNL1       -0.1659
     20 F         141.7168  139.2184  161.3199 F       1  UNL1       -0.1659
     21 F         141.0557  136.8769  163.0751 F       1  UNL1       -0.1659
     22 C         144.5418  144.2075  171.0783 C.2     1  UNL1        0.0598
     23 C         144.5301  143.0444  170.1312 C.2     1  UNL1        0.0047
     24 O         147.1316  144.3558  170.9334 O.2     1  UNL1       -0.2681
     25 C         145.8159  144.9587  171.3279 C.2     1  UNL1        0.2679
     26 N         145.7744  146.3128  171.9719 N.am    1  UNL1       -0.1934
     27 O         147.0485  147.0640  172.2215 O.3     1  UNL1       -0.2949
     28 H         144.9109  146.7085  172.2308 H       1  UNL1        0.1825
     29 H         147.8009  146.5370  171.9097 H       1  UNL1        0.2414
@<TRIPOS>BOND
     1    24    25    2
     2    25    22    1
     3    22    23    2
     4    23     1    1
     5     1     2   ar
     6     2     3   ar
     7     3     4   ar
     8     4     5   ar
     9     5     6   ar
    10     5     7    1
    11     7     8    1
    12     8     9   am
    13     9    10    2
    14     9    12    1
    15    12    13   ar
    16    13    14   ar
    17    14    15   ar
    18    15    16   ar
    19    16    18    1
    20    18    19    1
    21    18    20    1
    22    18    21    1
    23    16    17   ar
    24     8    11    1
    25    25    26   am
    26    26    27    1
    27     6     1   ar
    28    17    12   ar
    29    11     4    1
    30    26    28    1
    31    27    29    1
