@<TRIPOS>MOLECULE
*****
 27 30 0 0 0
SMALL
GASTEIGER

@<TRIPOS>ATOM
      1 C         137.3449  138.0673  167.3159 C.3     1  UNL1        0.0420
      2 C         138.2918  139.1254  166.8321 C.3     1  UNL1        0.1912
      3 O         138.3688  139.4513  165.3700 O.3     1  UNL1       -0.3500
      4 C         139.3156  140.5094  164.8863 C.3     1  UNL1        0.1145
      5 C         140.2625  141.5675  164.4026 C.3     1  UNL1        0.0463
      6 C         140.3395  141.8934  162.9405 C.3     1  UNL1        0.0746
      7 N         139.4696  141.1612  161.9621 N.3     1  UNL1       -0.2722
      8 C         138.5228  140.1031  162.4457 C.3     1  UNL1        0.0746
      9 C         138.4458  139.7772  163.9078 C.3     1  UNL1        0.0463
     10 C         140.1855  141.2416  165.8647 C.3     1  UNL1        0.1254
     11 N         140.1084  140.9156  167.3269 N.am    1  UNL1       -0.2543
     12 C         139.1616  139.8575  167.8106 C.2     1  UNL1        0.2566
     13 O         139.0846  139.5316  169.2727 O.2     1  UNL1       -0.2719
     14 C         140.9782  141.6478  168.3053 C.ar    1  UNL1        0.0540
     15 C         140.4418  142.8410  169.0391 C.ar    1  UNL1        0.0149
     16 C         141.3117  143.5731  170.0175 C.ar    1  UNL1        0.0013
     17 C         142.7179  143.1121  170.2622 C.ar    1  UNL1        0.0001
     18 C         143.2544  141.9188  169.5284 C.ar    1  UNL1        0.0013
     19 C         142.3845  141.1866  168.5500 C.ar    1  UNL1        0.0149
     20 C         139.5467  141.4872  160.4999 C.3     1  UNL1        0.0768
     21 C         140.5017  140.7425  159.6148 C.3     1  UNL1        0.0437
     22 C         141.6130  139.9373  160.2203 C.ar    1  UNL1       -0.0208
     23 C         141.4094  138.4808  160.5151 C.ar    1  UNL1       -0.0042
     24 C         142.5208  137.6757  161.1205 C.ar    1  UNL1       -0.0003
     25 C         143.8358  138.3271  161.4312 C.ar    1  UNL1       -0.0000
     26 C         144.0394  139.7836  161.1364 C.ar    1  UNL1       -0.0003
     27 C         142.9280  140.5888  160.5309 C.ar    1  UNL1       -0.0042
@<TRIPOS>BOND
     1     2     1    1
     2     2     3    1
     3     3     4    1
     4     4     5    1
     5     5     6    1
     6     6     7    1
     7     7    20    1
     8    20    21    1
     9    21    22    1
    10    22    23   ar
    11    23    24   ar
    12    24    25   ar
    13    25    26   ar
    14    26    27   ar
    15     7     8    1
    16     8     9    1
    17     4    10    1
    18    10    11    1
    19    11    14    1
    20    14    15   ar
    21    15    16   ar
    22    16    17   ar
    23    17    18   ar
    24    18    19   ar
    25    11    12   am
    26    12    13    2
    27    12     2    1
    28     9     4    1
    29    19    14   ar
    30    27    22   ar
@<TRIPOS>MOLECULE
*****
 27 30 0 0 0
SMALL
GASTEIGER

@<TRIPOS>ATOM
      1 C         144.4757  142.4997  160.6907 C.3     1  UNL1        0.0420
      2 C         143.1720  143.2170  160.5003 C.3     1  UNL1        0.1912
      3 O         142.8787  143.9075  159.2015 O.3     1  UNL1       -0.3500
      4 C         141.5750  144.6247  159.0110 C.3     1  UNL1        0.1145
      5 C         140.2714  145.3419  158.8207 C.3     1  UNL1        0.0463
      6 C         139.9781  146.0324  157.5218 C.3     1  UNL1        0.0746
      7 N         140.9883  146.0058  156.4133 N.3     1  UNL1       -0.2722
      8 C         142.2919  145.2886  156.6037 C.3     1  UNL1        0.0746
      9 C         142.5853  144.5981  157.9026 C.3     1  UNL1        0.0463
     10 C         140.5648  144.6514  160.1195 C.3     1  UNL1        0.1254
     11 N         140.8582  143.9608  161.4184 N.am    1  UNL1       -0.2543
     12 C         142.1618  143.2436  161.6088 C.2     1  UNL1        0.2566
     13 O         142.4552  142.5530  162.9077 O.2     1  UNL1       -0.2719
     14 C         139.8480  143.9874  162.5269 C.ar    1  UNL1        0.0540
     15 C         138.5992  143.1629  162.4235 C.ar    1  UNL1        0.0149
     16 C         137.5890  143.1895  163.5320 C.ar    1  UNL1        0.0013
     17 C         137.8275  144.0406  164.7438 C.ar    1  UNL1        0.0001
     18 C         139.0763  144.8652  164.8473 C.ar    1  UNL1        0.0013
     19 C         140.0865  144.8386  163.7388 C.ar    1  UNL1        0.0149
     20 C         140.6949  146.6964  155.1144 C.3     1  UNL1        0.0768
     21 C         139.3553  147.3324  154.8890 C.3     1  UNL1        0.0437
     22 C         139.2520  148.8169  154.6999 C.ar    1  UNL1       -0.0208
     23 C         138.6305  149.6675  155.7676 C.ar    1  UNL1       -0.0042
     24 C         138.5273  151.1519  155.5784 C.ar    1  UNL1       -0.0003
     25 C         139.0456  151.7857  154.3215 C.ar    1  UNL1       -0.0000
     26 C         139.6671  150.9350  153.2538 C.ar    1  UNL1       -0.0003
     27 C         139.7703  149.4506  153.4430 C.ar    1  UNL1       -0.0042
@<TRIPOS>BOND
     1     2     1    1
     2     2     3    1
     3     3     4    1
     4     4     5    1
     5     5     6    1
     6     6     7    1
     7     7    20    1
     8    20    21    1
     9    21    22    1
    10    22    23   ar
    11    23    24   ar
    12    24    25   ar
    13    25    26   ar
    14    26    27   ar
    15     7     8    1
    16     8     9    1
    17     4    10    1
    18    10    11    1
    19    11    14    1
    20    14    15   ar
    21    15    16   ar
    22    16    17   ar
    23    17    18   ar
    24    18    19   ar
    25    11    12   am
    26    12    13    2
    27    12     2    1
    28     9     4    1
    29    19    14   ar
    30    27    22   ar
@<TRIPOS>MOLECULE
*****
 27 30 0 0 0
SMALL
GASTEIGER

@<TRIPOS>ATOM
      1 C         137.5052  138.1988  167.0428 C.3     1  UNL1        0.0420
      2 C         138.3150  139.3992  166.6512 C.3     1  UNL1        0.1912
      3 O         138.2090  139.9548  165.2620 O.3     1  UNL1       -0.3500
      4 C         139.0187  141.1552  164.8704 C.3     1  UNL1        0.1145
      5 C         139.8285  142.3556  164.4789 C.3     1  UNL1        0.0463
      6 C         139.7224  142.9112  163.0897 C.3     1  UNL1        0.0746
      7 N         138.8066  142.2664  162.0919 N.3     1  UNL1       -0.2722
      8 C         137.9969  141.0660  162.4834 C.3     1  UNL1        0.0746
      9 C         138.1029  140.5104  163.8727 C.3     1  UNL1        0.0463
     10 C         139.9345  141.8001  165.8682 C.3     1  UNL1        0.1254
     11 N         140.0406  141.2444  167.2575 N.am    1  UNL1       -0.2543
     12 C         139.2308  140.0440  167.6490 C.2     1  UNL1        0.2566
     13 O         139.3368  139.4884  169.0383 O.2     1  UNL1       -0.2719
     14 C         140.9564  141.8892  168.2552 C.ar    1  UNL1        0.0540
     15 C         142.3926  141.4647  168.3388 C.ar    1  UNL1        0.0149
     16 C         143.3084  142.1096  169.3366 C.ar    1  UNL1        0.0013
     17 C         142.7880  143.1789  170.2507 C.ar    1  UNL1        0.0001
     18 C         141.3517  143.6034  170.1672 C.ar    1  UNL1        0.0013
     19 C         140.4359  142.9586  169.1694 C.ar    1  UNL1        0.0149
     20 C         138.7006  142.8220  160.7026 C.3     1  UNL1        0.0768
     21 C         139.9396  143.2256  159.9597 C.3     1  UNL1        0.0437
     22 C         139.8278  143.9950  158.6768 C.ar    1  UNL1       -0.0208
     23 C         140.3097  145.4138  158.6087 C.ar    1  UNL1       -0.0042
     24 C         140.1979  146.1830  157.3259 C.ar    1  UNL1       -0.0003
     25 C         139.6041  145.5334  156.1112 C.ar    1  UNL1       -0.0000
     26 C         139.1222  144.1146  156.1793 C.ar    1  UNL1       -0.0003
     27 C         139.2340  143.3454  157.4621 C.ar    1  UNL1       -0.0042
@<TRIPOS>BOND
     1     2     1    1
     2     2     3    1
     3     3     4    1
     4     4     5    1
     5     5     6    1
     6     6     7    1
     7     7    20    1
     8    20    21    1
     9    21    22    1
    10    22    23   ar
    11    23    24   ar
    12    24    25   ar
    13    25    26   ar
    14    26    27   ar
    15     7     8    1
    16     8     9    1
    17     4    10    1
    18    10    11    1
    19    11    14    1
    20    14    15   ar
    21    15    16   ar
    22    16    17   ar
    23    17    18   ar
    24    18    19   ar
    25    11    12   am
    26    12    13    2
    27    12     2    1
    28     9     4    1
    29    19    14   ar
    30    27    22   ar
@<TRIPOS>MOLECULE
*****
 27 30 0 0 0
SMALL
GASTEIGER

@<TRIPOS>ATOM
      1 C         143.8561  138.0484  166.2732 C.3     1  UNL1        0.0420
      2 C         142.5515  138.7871  166.2213 C.3     1  UNL1        0.1912
      3 O         141.6471  138.6295  165.0351 O.3     1  UNL1       -0.3500
      4 C         140.3425  139.3682  164.9833 C.3     1  UNL1        0.1145
      5 C         139.0380  140.1068  164.9315 C.3     1  UNL1        0.0463
      6 C         138.1336  139.9492  163.7453 C.3     1  UNL1        0.0746
      7 N         138.5336  139.0531  162.6109 N.3     1  UNL1       -0.2722
      8 C         139.8381  138.3145  162.6626 C.3     1  UNL1        0.0746
      9 C         140.7426  138.4720  163.8489 C.3     1  UNL1        0.0463
     10 C         139.9425  140.2643  166.1177 C.3     1  UNL1        0.1254
     11 N         140.8470  140.4218  167.3039 N.am    1  UNL1       -0.2543
     12 C         142.1515  139.6832  167.3557 C.2     1  UNL1        0.2566
     13 O         143.0560  139.8407  168.5420 O.2     1  UNL1       -0.2719
     14 C         140.4469  141.3179  168.4383 C.ar    1  UNL1        0.0540
     15 C         139.5642  140.7945  169.5323 C.ar    1  UNL1        0.0149
     16 C         139.1641  141.6906  170.6667 C.ar    1  UNL1        0.0013
     17 C         139.6468  143.1102  170.7072 C.ar    1  UNL1        0.0001
     18 C         140.5296  143.6338  169.6132 C.ar    1  UNL1        0.0013
     19 C         140.9297  142.7376  168.4788 C.ar    1  UNL1        0.0149
     20 C         137.6291  138.8956  161.4246 C.3     1  UNL1        0.0768
     21 C         137.7118  139.8665  160.2843 C.3     1  UNL1        0.0437
     22 C         138.7380  140.9604  160.3035 C.ar    1  UNL1       -0.0208
     23 C         140.1084  140.7131  159.7461 C.ar    1  UNL1       -0.0042
     24 C         141.1345  141.8070  159.7654 C.ar    1  UNL1       -0.0003
     25 C         140.7902  143.1483  160.3420 C.ar    1  UNL1       -0.0000
     26 C         139.4197  143.3956  160.8994 C.ar    1  UNL1       -0.0003
     27 C         138.3936  142.3017  160.8801 C.ar    1  UNL1       -0.0042
@<TRIPOS>BOND
     1     2     1    1
     2     2     3    1
     3     3     4    1
     4     4     5    1
     5     5     6    1
     6     6     7    1
     7     7    20    1
     8    20    21    1
     9    21    22    1
    10    22    23   ar
    11    23    24   ar
    12    24    25   ar
    13    25    26   ar
    14    26    27   ar
    15     7     8    1
    16     8     9    1
    17     4    10    1
    18    10    11    1
    19    11    14    1
    20    14    15   ar
    21    15    16   ar
    22    16    17   ar
    23    17    18   ar
    24    18    19   ar
    25    11    12   am
    26    12    13    2
    27    12     2    1
    28     9     4    1
    29    19    14   ar
    30    27    22   ar
@<TRIPOS>MOLECULE
*****
 27 30 0 0 0
SMALL
GASTEIGER

@<TRIPOS>ATOM
      1 C         139.0389  138.9194  164.5376 C.3     1  UNL1        0.0420
      2 C         139.6466  140.2741  164.7513 C.3     1  UNL1        0.1912
      3 O         139.6735  141.2695  163.6295 O.3     1  UNL1       -0.3500
      4 C         140.2813  142.6241  163.8432 C.3     1  UNL1        0.1145
      5 C         140.8890  143.9787  164.0570 C.3     1  UNL1        0.0463
      6 C         140.9159  144.9741  162.9352 C.3     1  UNL1        0.0746
      7 N         140.3351  144.6149  161.5996 N.3     1  UNL1       -0.2722
      8 C         139.7274  143.2603  161.3859 C.3     1  UNL1        0.0746
      9 C         139.7005  142.2649  162.5077 C.3     1  UNL1        0.0463
     10 C         140.8621  142.9833  165.1787 C.3     1  UNL1        0.1254
     11 N         140.8351  141.9879  166.3006 N.am    1  UNL1       -0.2543
     12 C         140.2274  140.6333  166.0868 C.2     1  UNL1        0.2566
     13 O         140.2005  139.6378  167.2086 O.2     1  UNL1       -0.2719
     14 C         141.4159  142.3471  167.6361 C.ar    1  UNL1        0.0540
     15 C         142.8430  142.0077  167.9491 C.ar    1  UNL1        0.0149
     16 C         143.4238  142.3669  169.2847 C.ar    1  UNL1        0.0013
     17 C         142.5775  143.0655  170.3072 C.ar    1  UNL1        0.0001
     18 C         141.1503  143.4050  169.9942 C.ar    1  UNL1        0.0013
     19 C         140.5695  143.0458  168.6586 C.ar    1  UNL1        0.0149
     20 C         140.3620  145.6103  160.4778 C.3     1  UNL1        0.0768
     21 C         141.0181  145.2560  159.1763 C.3     1  UNL1        0.0437
     22 C         140.2065  145.2088  157.9156 C.ar    1  UNL1       -0.0208
     23 C         140.0080  146.4548  157.1044 C.ar    1  UNL1       -0.0042
     24 C         139.1964  146.4076  155.8438 C.ar    1  UNL1       -0.0003
     25 C         138.5834  145.1144  155.3945 C.ar    1  UNL1       -0.0000
     26 C         138.7819  143.8684  156.2057 C.ar    1  UNL1       -0.0003
     27 C         139.5934  143.9157  157.4663 C.ar    1  UNL1       -0.0042
@<TRIPOS>BOND
     1     2     1    1
     2     2     3    1
     3     3     4    1
     4     4     5    1
     5     5     6    1
     6     6     7    1
     7     7    20    1
     8    20    21    1
     9    21    22    1
    10    22    23   ar
    11    23    24   ar
    12    24    25   ar
    13    25    26   ar
    14    26    27   ar
    15     7     8    1
    16     8     9    1
    17     4    10    1
    18    10    11    1
    19    11    14    1
    20    14    15   ar
    21    15    16   ar
    22    16    17   ar
    23    17    18   ar
    24    18    19   ar
    25    11    12   am
    26    12    13    2
    27    12     2    1
    28     9     4    1
    29    19    14   ar
    30    27    22   ar
@<TRIPOS>MOLECULE
*****
 27 30 0 0 0
SMALL
GASTEIGER

@<TRIPOS>ATOM
      1 C         144.4892  137.2671  167.0002 C.3     1  UNL1        0.0420
      2 C         143.6449  138.4447  166.6123 C.3     1  UNL1        0.1912
      3 O         143.5515  138.8592  165.1738 O.3     1  UNL1       -0.3500
      4 C         142.7072  140.0369  164.7858 C.3     1  UNL1        0.1145
      5 C         141.8630  141.2145  164.3980 C.3     1  UNL1        0.0463
      6 C         141.7697  141.6290  162.9595 C.3     1  UNL1        0.0746
      7 N         142.5206  140.8660  161.9088 N.3     1  UNL1       -0.2722
      8 C         143.3648  139.6884  162.2967 C.3     1  UNL1        0.0746
      9 C         143.4582  139.2739  163.7352 C.3     1  UNL1        0.0463
     10 C         141.9563  140.7999  165.8365 C.3     1  UNL1        0.1254
     11 N         142.0497  140.3853  167.2751 N.am    1  UNL1       -0.2543
     12 C         142.8939  139.2077  167.6630 C.2     1  UNL1        0.2566
     13 O         142.9873  138.7931  169.1015 O.2     1  UNL1       -0.2719
     14 C         141.2987  141.1483  168.3258 C.ar    1  UNL1        0.0540
     15 C         141.7721  142.5077  168.7476 C.ar    1  UNL1        0.0149
     16 C         141.0212  143.2707  169.7983 C.ar    1  UNL1        0.0013
     17 C         139.7969  142.6744  170.4271 C.ar    1  UNL1        0.0001
     18 C         139.3234  141.3150  170.0052 C.ar    1  UNL1        0.0013
     19 C         140.0744  140.5520  168.9545 C.ar    1  UNL1        0.0149
     20 C         142.4272  141.2806  160.4702 C.3     1  UNL1        0.0768
     21 C         141.1714  141.0165  159.6936 C.3     1  UNL1        0.0437
     22 C         140.0397  140.2655  160.3303 C.ar    1  UNL1       -0.0208
     23 C         140.1324  138.7791  160.5087 C.ar    1  UNL1       -0.0042
     24 C         139.0007  138.0281  161.1453 C.ar    1  UNL1       -0.0003
     25 C         137.7764  138.7636  161.6036 C.ar    1  UNL1       -0.0000
     26 C         137.6837  140.2501  161.4251 C.ar    1  UNL1       -0.0003
     27 C         138.8154  141.0010  160.7885 C.ar    1  UNL1       -0.0042
@<TRIPOS>BOND
     1     2     1    1
     2     2     3    1
     3     3     4    1
     4     4     5    1
     5     5     6    1
     6     6     7    1
     7     7    20    1
     8    20    21    1
     9    21    22    1
    10    22    23   ar
    11    23    24   ar
    12    24    25   ar
    13    25    26   ar
    14    26    27   ar
    15     7     8    1
    16     8     9    1
    17     4    10    1
    18    10    11    1
    19    11    14    1
    20    14    15   ar
    21    15    16   ar
    22    16    17   ar
    23    17    18   ar
    24    18    19   ar
    25    11    12   am
    26    12    13    2
    27    12     2    1
    28     9     4    1
    29    19    14   ar
    30    27    22   ar
@<TRIPOS>MOLECULE
*****
 27 30 0 0 0
SMALL
GASTEIGER

@<TRIPOS>ATOM
      1 C         140.8165  145.1222  158.6462 C.3     1  UNL1        0.0420
      2 C         141.9889  144.3063  159.1045 C.3     1  UNL1        0.1912
      3 O         142.2244  144.0889  160.5698 O.3     1  UNL1       -0.3500
      4 C         143.3967  143.2730  161.0281 C.3     1  UNL1        0.1145
      5 C         144.5690  142.4571  161.4864 C.3     1  UNL1        0.0463
      6 C         144.8045  142.2397  162.9517 C.3     1  UNL1        0.0746
      7 N         143.8676  142.8381  163.9588 N.3     1  UNL1       -0.2722
      8 C         142.6953  143.6539  163.5005 C.3     1  UNL1        0.0746
      9 C         142.4599  143.8714  162.0352 C.3     1  UNL1        0.0463
     10 C         144.3336  142.6746  160.0210 C.3     1  UNL1        0.1254
     11 N         144.0981  142.8921  158.5556 N.am    1  UNL1       -0.2543
     12 C         142.9258  143.7080  158.0974 C.2     1  UNL1        0.2566
     13 O         142.6903  143.9255  156.6320 O.2     1  UNL1       -0.2719
     14 C         145.0349  142.2937  157.5485 C.ar    1  UNL1        0.0540
     15 C         144.6104  141.0998  156.7459 C.ar    1  UNL1        0.0149
     16 C         145.5473  140.5014  155.7388 C.ar    1  UNL1        0.0013
     17 C         146.9087  141.0970  155.5344 C.ar    1  UNL1        0.0001
     18 C         147.3333  142.2910  156.3370 C.ar    1  UNL1        0.0013
     19 C         146.3964  142.8894  157.3441 C.ar    1  UNL1        0.0149
     20 C         144.1031  142.6205  165.4242 C.3     1  UNL1        0.0768
     21 C         143.1996  141.7104  166.2020 C.3     1  UNL1        0.0437
     22 C         142.5318  142.2046  167.4510 C.ar    1  UNL1       -0.0208
     23 C         143.3263  142.3644  168.7133 C.ar    1  UNL1       -0.0042
     24 C         142.6585  142.8586  169.9622 C.ar    1  UNL1       -0.0003
     25 C         141.1963  143.1931  169.9488 C.ar    1  UNL1       -0.0000
     26 C         140.4019  143.0334  168.6866 C.ar    1  UNL1       -0.0003
     27 C         141.0697  142.5391  167.4377 C.ar    1  UNL1       -0.0042
@<TRIPOS>BOND
     1     2     1    1
     2     2     3    1
     3     3     4    1
     4     4     5    1
     5     5     6    1
     6     6     7    1
     7     7    20    1
     8    20    21    1
     9    21    22    1
    10    22    23   ar
    11    23    24   ar
    12    24    25   ar
    13    25    26   ar
    14    26    27   ar
    15     7     8    1
    16     8     9    1
    17     4    10    1
    18    10    11    1
    19    11    14    1
    20    14    15   ar
    21    15    16   ar
    22    16    17   ar
    23    17    18   ar
    24    18    19   ar
    25    11    12   am
    26    12    13    2
    27    12     2    1
    28     9     4    1
    29    19    14   ar
    30    27    22   ar
@<TRIPOS>MOLECULE
*****
 27 30 0 0 0
SMALL
GASTEIGER

@<TRIPOS>ATOM
      1 C         138.0965  138.3043  166.2015 C.3     1  UNL1        0.0420
      2 C         139.2099  139.2882  165.9953 C.3     1  UNL1        0.1912
      3 O         139.7183  139.5663  164.6118 O.3     1  UNL1       -0.3500
      4 C         140.8317  140.5502  164.4056 C.3     1  UNL1        0.1145
      5 C         141.9451  141.5340  164.1994 C.3     1  UNL1        0.0463
      6 C         142.4535  141.8121  162.8159 C.3     1  UNL1        0.0746
      7 N         141.8486  141.1065  161.6386 N.3     1  UNL1       -0.2722
      8 C         140.7352  140.1227  161.8447 C.3     1  UNL1        0.0746
      9 C         140.2268  139.8445  163.2282 C.3     1  UNL1        0.0463
     10 C         141.4366  141.2558  165.5829 C.3     1  UNL1        0.1254
     11 N         140.9282  140.9776  166.9664 N.am    1  UNL1       -0.2543
     12 C         139.8148  139.9938  167.1726 C.2     1  UNL1        0.2566
     13 O         139.3064  139.7156  168.5562 O.2     1  UNL1       -0.2719
     14 C         141.5331  141.6833  168.1438 C.ar    1  UNL1        0.0540
     15 C         142.9011  141.3008  168.6257 C.ar    1  UNL1        0.0149
     16 C         143.5060  142.0065  169.8030 C.ar    1  UNL1        0.0013
     17 C         142.7429  143.0946  170.4984 C.ar    1  UNL1        0.0001
     18 C         141.3749  143.4771  170.0166 C.ar    1  UNL1        0.0013
     19 C         140.7699  142.7715  168.8392 C.ar    1  UNL1        0.0149
     20 C         142.3570  141.3847  160.2550 C.3     1  UNL1        0.0768
     21 C         143.0171  142.6962  159.9482 C.3     1  UNL1        0.0437
     22 C         142.2688  143.7537  159.1920 C.ar    1  UNL1       -0.0208
     23 C         141.1163  144.4639  159.8379 C.ar    1  UNL1       -0.0042
     24 C         140.3681  145.5213  159.0817 C.ar    1  UNL1       -0.0003
     25 C         140.7724  145.8687  157.6796 C.ar    1  UNL1       -0.0000
     26 C         141.9250  145.1585  157.0337 C.ar    1  UNL1       -0.0003
     27 C         142.6732  144.1010  157.7899 C.ar    1  UNL1       -0.0042
@<TRIPOS>BOND
     1     2     1    1
     2     2     3    1
     3     3     4    1
     4     4     5    1
     5     5     6    1
     6     6     7    1
     7     7    20    1
     8    20    21    1
     9    21    22    1
    10    22    23   ar
    11    23    24   ar
    12    24    25   ar
    13    25    26   ar
    14    26    27   ar
    15     7     8    1
    16     8     9    1
    17     4    10    1
    18    10    11    1
    19    11    14    1
    20    14    15   ar
    21    15    16   ar
    22    16    17   ar
    23    17    18   ar
    24    18    19   ar
    25    11    12   am
    26    12    13    2
    27    12     2    1
    28     9     4    1
    29    19    14   ar
    30    27    22   ar
@<TRIPOS>MOLECULE
*****
 27 30 0 0 0
SMALL
GASTEIGER

@<TRIPOS>ATOM
      1 C         138.8927  144.7043  163.6576 C.3     1  UNL1        0.0420
      2 C         140.0194  144.2507  162.7772 C.3     1  UNL1        0.1912
      3 O         140.0851  144.7052  161.3493 O.3     1  UNL1       -0.3500
      4 C         141.2117  144.2516  160.4689 C.3     1  UNL1        0.1145
      5 C         142.3383  143.7980  159.5885 C.3     1  UNL1        0.0463
      6 C         142.4040  144.2525  158.1606 C.3     1  UNL1        0.0746
      7 N         141.3432  145.1607  157.6130 N.3     1  UNL1       -0.2722
      8 C         140.2167  145.6143  158.4933 C.3     1  UNL1        0.0746
      9 C         140.1509  145.1598  159.9213 C.3     1  UNL1        0.0463
     10 C         142.2726  143.3434  161.0165 C.3     1  UNL1        0.1254
     11 N         142.2068  142.8889  162.4445 N.am    1  UNL1       -0.2543
     12 C         141.0802  143.3425  163.3248 C.2     1  UNL1        0.2566
     13 O         141.0144  142.8880  164.7528 O.2     1  UNL1       -0.2719
     14 C         143.2676  141.9807  162.9921 C.ar    1  UNL1        0.0540
     15 C         143.0002  140.5109  163.1268 C.ar    1  UNL1        0.0149
     16 C         144.0611  139.6028  163.6744 C.ar    1  UNL1        0.0013
     17 C         145.3892  140.1644  164.0873 C.ar    1  UNL1        0.0001
     18 C         145.6566  141.6342  163.9526 C.ar    1  UNL1        0.0013
     19 C         144.5958  142.5424  163.4050 C.ar    1  UNL1        0.0149
     20 C         141.4090  145.6152  156.1850 C.3     1  UNL1        0.0768
     21 C         140.1469  145.9406  155.4426 C.3     1  UNL1        0.0437
     22 C         139.8177  147.3662  155.1118 C.ar    1  UNL1       -0.0208
     23 C         138.9315  148.1622  156.0234 C.ar    1  UNL1       -0.0042
     24 C         138.6023  149.5878  155.6925 C.ar    1  UNL1       -0.0003
     25 C         139.1592  150.2172  154.4501 C.ar    1  UNL1       -0.0000
     26 C         140.0454  149.4212  153.5386 C.ar    1  UNL1       -0.0003
     27 C         140.3746  147.9957  153.8694 C.ar    1  UNL1       -0.0042
@<TRIPOS>BOND
     1     2     1    1
     2     2     3    1
     3     3     4    1
     4     4     5    1
     5     5     6    1
     6     6     7    1
     7     7    20    1
     8    20    21    1
     9    21    22    1
    10    22    23   ar
    11    23    24   ar
    12    24    25   ar
    13    25    26   ar
    14    26    27   ar
    15     7     8    1
    16     8     9    1
    17     4    10    1
    18    10    11    1
    19    11    14    1
    20    14    15   ar
    21    15    16   ar
    22    16    17   ar
    23    17    18   ar
    24    18    19   ar
    25    11    12   am
    26    12    13    2
    27    12     2    1
    28     9     4    1
    29    19    14   ar
    30    27    22   ar
