@<TRIPOS>MOLECULE
*****
 44 48 0 0 0
SMALL
GASTEIGER

@<TRIPOS>ATOM
      1 C         142.7370  137.7358  157.2313 C.ar    1  UNL1        0.1534
      2 N         142.2609  137.6111  158.6482 N.ar    1  UNL1       -0.2279
      3 C         142.7148  138.8281  159.3985 C.ar    1  UNL1        0.1036
      4 C         143.4714  139.7049  158.4452 C.ar    1  UNL1        0.1142
      5 C         144.1497  141.0308  158.6238 C.ar    1  UNL1        0.1432
      6 N         144.1360  141.7059  159.9633 N.pl3   1  UNL1       -0.3414
      7 N         144.8416  141.6817  157.4630 N.ar    1  UNL1       -0.2265
      8 C         144.8553  141.0066  156.1235 C.ar    1  UNL1        0.1193
      9 C         144.1771  139.6807  155.9449 C.ar    1  UNL1        0.1021
     10 N         143.4851  139.0299  157.1058 N.ar    1  UNL1       -0.2865
     11 H         143.6818  141.2787  160.7252 H       1  UNL1        0.1438
     12 H         144.5811  142.5762  160.0805 H       1  UNL1        0.1438
     13 C         142.3015  132.8084  155.6403 C.2     1  UNL1        0.2253
     14 O         142.5465  132.3342  157.0420 O.2     1  UNL1       -0.2749
     15 N         142.2878  134.2774  155.3371 N.am    1  UNL1       -0.2740
     16 C         142.0428  134.7517  153.9353 C.3     1  UNL1        0.1255
     17 C         142.0291  136.2207  153.6322 C.3     1  UNL1        0.1641
     18 O         142.2605  137.2153  154.7309 O.3     1  UNL1       -0.3451
     19 C         142.5056  136.7411  156.1326 C.3     1  UNL1        0.1913
     20 C         142.5192  135.2721  156.4357 C.3     1  UNL1        0.1307
     21 C         143.2238  131.3256  153.7166 C.3     1  UNL1        0.0096
     22 C         142.0701  131.8138  154.5416 C.3     1  UNL1        0.0767
     23 C         140.6849  131.3073  154.2679 C.3     1  UNL1        0.0096
     24 C         142.4574  139.1174  160.8476 C.ar    1  UNL1        0.0467
     25 C         141.3542  140.0545  161.2409 C.ar    1  UNL1        0.0039
     26 C         141.0967  140.3439  162.6900 C.ar    1  UNL1        0.0047
     27 C         141.9425  139.6961  163.7459 C.ar    1  UNL1        0.0559
     28 C         143.0457  138.7590  163.3527 C.ar    1  UNL1        0.0342
     29 C         143.3032  138.4696  161.9036 C.ar    1  UNL1        0.1417
     30 F         144.4065  137.5325  161.5104 F       1  UNL1       -0.2041
     31 C         141.6850  139.9855  165.1951 C.2     1  UNL1        0.2506
     32 O         140.2884  139.9136  165.7375 O.2     1  UNL1       -0.2698
     33 N         142.8241  140.3467  166.1017 N.am    1  UNL1       -0.2658
     34 H         143.7408  140.3938  165.7456 H       1  UNL1        0.1566
     35 C         142.5666  140.6360  167.5508 C.ar    1  UNL1        0.1343
     36 C         141.9954  141.9609  167.9610 C.ar    1  UNL1        0.0383
     37 C         141.7378  142.2504  169.4101 C.ar    1  UNL1        0.0757
     38 C         142.0514  141.2148  170.4490 C.ar    1  UNL1        0.0246
     39 C         142.6226  139.8899  170.0388 C.ar    1  UNL1        0.1003
     40 N         142.8802  139.6005  168.5897 N.ar    1  UNL1       -0.2290
     41 C         141.1665  143.5753  169.8203 C.3     1  UNL1        0.4187
     42 F         140.5953  144.9002  170.2305 F       1  UNL1       -0.1659
     43 F         139.8949  143.2521  169.0933 F       1  UNL1       -0.1659
     44 F         142.4381  143.8984  170.5473 F       1  UNL1       -0.1659
@<TRIPOS>BOND
     1    21    22    1
     2    22    23    1
     3    22    13    1
     4    13    14    2
     5    13    15   am
     6    15    16    1
     7    16    17    1
     8    17    18    1
     9    18    19    1
    10    19     1    1
    11     1     2   ar
    12     2     3   ar
    13     3    24    1
    14    24    25   ar
    15    25    26   ar
    16    26    27   ar
    17    27    31    1
    18    31    32    2
    19    31    33   am
    20    33    35    1
    21    35    36   ar
    22    36    37   ar
    23    37    41    1
    24    41    42    1
    25    41    43    1
    26    41    44    1
    27    37    38   ar
    28    38    39   ar
    29    39    40   ar
    30    27    28   ar
    31    28    29   ar
    32    29    30    1
    33     3     4   ar
    34     4     5   ar
    35     5     6    1
    36     5     7   ar
    37     7     8   ar
    38     8     9   ar
    39     9    10   ar
    40    19    20    1
    41    20    15    1
    42    10     1   ar
    43    29    24   ar
    44    10     4   ar
    45    40    35   ar
    46    33    34    1
    47     6    11    1
    48     6    12    1
@<TRIPOS>MOLECULE
*****
 44 48 0 0 0
SMALL
GASTEIGER

@<TRIPOS>ATOM
      1 C         140.7245  141.8255  163.1006 C.ar    1  UNL1        0.1534
      2 N         141.7096  141.3374  162.0801 N.ar    1  UNL1       -0.2279
      3 C         141.8629  142.4041  161.0367 C.ar    1  UNL1        0.1036
      4 C         140.9726  143.5514  161.4123 C.ar    1  UNL1        0.1142
      5 C         140.7116  144.8755  160.7576 C.ar    1  UNL1        0.1432
      6 N         141.4152  145.2330  159.4820 N.pl3   1  UNL1       -0.3414
      7 N         139.7471  145.8420  161.3785 N.ar    1  UNL1       -0.2265
      8 C         139.0436  145.4844  162.6541 C.ar    1  UNL1        0.1193
      9 C         139.3045  144.1603  163.3088 C.ar    1  UNL1        0.1021
     10 N         140.2690  143.1938  162.6879 N.ar    1  UNL1       -0.2865
     11 H         142.0482  144.5987  159.0745 H       1  UNL1        0.1438
     12 H         141.2439  146.1021  159.0523 H       1  UNL1        0.1438
     13 C         140.7336  141.2056  168.2596 C.2     1  UNL1        0.2253
     14 O         141.6391  142.3931  168.4007 O.2     1  UNL1       -0.2749
     15 N         140.2786  140.7668  166.8994 N.am    1  UNL1       -0.2740
     16 C         139.3731  139.5793  166.7583 C.3     1  UNL1        0.1255
     17 C         138.9181  139.1406  165.3980 C.3     1  UNL1        0.1641
     18 O         139.3686  139.8893  164.1788 O.3     1  UNL1       -0.3451
     19 C         140.2740  141.0768  164.3198 C.3     1  UNL1        0.1913
     20 C         140.7291  141.5156  165.6802 C.3     1  UNL1        0.1307
     21 C         138.8905  140.6462  170.0033 C.3     1  UNL1        0.0096
     22 C         140.2831  140.4569  169.4788 C.3     1  UNL1        0.0767
     23 C         141.2251  139.5189  170.1736 C.3     1  UNL1        0.0096
     24 C         142.7506  142.3355  159.8295 C.ar    1  UNL1        0.0467
     25 C         142.1846  141.9169  158.5051 C.ar    1  UNL1        0.0039
     26 C         143.0724  141.8483  157.2979 C.ar    1  UNL1        0.0047
     27 C         144.5262  142.1984  157.4152 C.ar    1  UNL1        0.0559
     28 C         145.0923  142.6171  158.7397 C.ar    1  UNL1        0.0342
     29 C         144.2045  142.6857  159.9469 C.ar    1  UNL1        0.1417
     30 F         144.7706  143.1043  161.2713 F       1  UNL1       -0.2041
     31 C         145.4140  142.1298  156.2081 C.2     1  UNL1        0.2506
     32 O         145.0796  141.1954  155.0834 O.2     1  UNL1       -0.2698
     33 N         146.6360  142.9957  156.1257 N.am    1  UNL1       -0.2658
     34 H         146.8555  143.6091  156.8638 H       1  UNL1        0.1566
     35 C         147.5238  142.9271  154.9184 C.ar    1  UNL1        0.1343
     36 C         148.7290  142.0342  154.9237 C.ar    1  UNL1        0.0383
     37 C         149.6168  141.9655  153.7165 C.ar    1  UNL1        0.0757
     38 C         149.2992  142.7897  152.5042 C.ar    1  UNL1        0.0246
     39 C         148.0939  143.6826  152.4990 C.ar    1  UNL1        0.1003
     40 N         147.2062  143.7513  153.7062 N.ar    1  UNL1       -0.2290
     41 C         150.8220  141.0726  153.7217 C.3     1  UNL1        0.4187
     42 F         152.0273  140.1796  153.7269 F       1  UNL1       -0.1659
     43 F         151.3423  141.7819  154.9367 F       1  UNL1       -0.1659
     44 F         150.3018  140.3632  152.5068 F       1  UNL1       -0.1659
@<TRIPOS>BOND
     1    21    22    1
     2    22    23    1
     3    22    13    1
     4    13    14    2
     5    13    15   am
     6    15    16    1
     7    16    17    1
     8    17    18    1
     9    18    19    1
    10    19     1    1
    11     1     2   ar
    12     2     3   ar
    13     3    24    1
    14    24    25   ar
    15    25    26   ar
    16    26    27   ar
    17    27    31    1
    18    31    32    2
    19    31    33   am
    20    33    35    1
    21    35    36   ar
    22    36    37   ar
    23    37    41    1
    24    41    42    1
    25    41    43    1
    26    41    44    1
    27    37    38   ar
    28    38    39   ar
    29    39    40   ar
    30    27    28   ar
    31    28    29   ar
    32    29    30    1
    33     3     4   ar
    34     4     5   ar
    35     5     6    1
    36     5     7   ar
    37     7     8   ar
    38     8     9   ar
    39     9    10   ar
    40    19    20    1
    41    20    15    1
    42    10     1   ar
    43    29    24   ar
    44    10     4   ar
    45    40    35   ar
    46    33    34    1
    47     6    11    1
    48     6    12    1
@<TRIPOS>MOLECULE
*****
 44 48 0 0 0
SMALL
GASTEIGER

@<TRIPOS>ATOM
      1 C         140.9841  141.7581  164.1079 C.ar    1  UNL1        0.1534
      2 N         142.0434  141.2789  163.1602 N.ar    1  UNL1       -0.2279
      3 C         141.8890  142.0331  161.8728 C.ar    1  UNL1        0.1036
      4 C         140.7343  142.9784  162.0249 C.ar    1  UNL1        0.1142
      5 C         140.1199  143.9720  161.0840 C.ar    1  UNL1        0.1432
      6 N         140.6792  144.1419  159.7026 N.pl3   1  UNL1       -0.3414
      7 N         138.9463  144.7956  161.5245 N.ar    1  UNL1       -0.2265
      8 C         138.3870  144.6256  162.9059 C.ar    1  UNL1        0.1193
      9 C         139.0014  143.6321  163.8468 C.ar    1  UNL1        0.1021
     10 N         140.1751  142.8085  163.4063 N.ar    1  UNL1       -0.2865
     11 H         141.4496  143.6014  159.4134 H       1  UNL1        0.1438
     12 H         140.2760  144.7941  159.0850 H       1  UNL1        0.1438
     13 C         142.4535  141.6081  169.0897 C.2     1  UNL1        0.2253
     14 O         143.6140  142.5047  168.7745 O.2     1  UNL1       -0.2749
     15 N         141.5059  141.1973  168.0020 N.am    1  UNL1       -0.2740
     16 C         140.3454  140.3007  168.3172 C.3     1  UNL1        0.1255
     17 C         139.3979  139.8899  167.2294 C.3     1  UNL1        0.1641
     18 O         139.6108  140.3757  165.8263 O.3     1  UNL1       -0.3451
     19 C         140.7712  141.2723  165.5110 C.3     1  UNL1        0.1913
     20 C         141.7188  141.6831  166.5989 C.3     1  UNL1        0.1307
     21 C         142.9901  139.9231  170.9932 C.3     1  UNL1        0.0096
     22 C         142.2406  141.1223  170.4928 C.3     1  UNL1        0.0767
     23 C         141.2782  141.8356  171.3956 C.3     1  UNL1        0.0096
     24 C         142.7400  141.8706  160.6482 C.ar    1  UNL1        0.0467
     25 C         142.3456  140.8879  159.5859 C.ar    1  UNL1        0.0039
     26 C         143.1965  140.7253  158.3613 C.ar    1  UNL1        0.0047
     27 C         144.4419  141.5456  158.1991 C.ar    1  UNL1        0.0559
     28 C         144.8363  142.5283  159.2615 C.ar    1  UNL1        0.0342
     29 C         143.9854  142.6909  160.4860 C.ar    1  UNL1        0.1417
     30 F         144.3798  143.6736  161.5484 F       1  UNL1       -0.2041
     31 C         145.2928  141.3830  156.9746 C.2     1  UNL1        0.2506
     32 O         145.3544  140.0578  156.2747 O.2     1  UNL1       -0.2698
     33 N         146.0821  142.5457  156.4500 N.am    1  UNL1       -0.2658
     34 H         146.0417  143.4155  156.9094 H       1  UNL1        0.1566
     35 C         146.9331  142.3830  155.2255 C.ar    1  UNL1        0.1343
     36 C         148.4224  142.2633  155.3576 C.ar    1  UNL1        0.0383
     37 C         149.2734  142.1006  154.1331 C.ar    1  UNL1        0.0757
     38 C         148.6349  142.0578  152.7765 C.ar    1  UNL1        0.0246
     39 C         147.1456  142.1775  152.6443 C.ar    1  UNL1        0.1003
     40 N         146.2946  142.3402  153.8688 N.ar    1  UNL1       -0.2290
     41 C         150.7627  141.9808  154.2653 C.3     1  UNL1        0.4187
     42 F         152.2521  141.8611  154.3975 F       1  UNL1       -0.1659
     43 F         150.5949  140.6632  154.9623 F       1  UNL1       -0.1659
     44 F         150.9306  143.2984  153.5684 F       1  UNL1       -0.1659
@<TRIPOS>BOND
     1    21    22    1
     2    22    23    1
     3    22    13    1
     4    13    14    2
     5    13    15   am
     6    15    16    1
     7    16    17    1
     8    17    18    1
     9    18    19    1
    10    19     1    1
    11     1     2   ar
    12     2     3   ar
    13     3    24    1
    14    24    25   ar
    15    25    26   ar
    16    26    27   ar
    17    27    31    1
    18    31    32    2
    19    31    33   am
    20    33    35    1
    21    35    36   ar
    22    36    37   ar
    23    37    41    1
    24    41    42    1
    25    41    43    1
    26    41    44    1
    27    37    38   ar
    28    38    39   ar
    29    39    40   ar
    30    27    28   ar
    31    28    29   ar
    32    29    30    1
    33     3     4   ar
    34     4     5   ar
    35     5     6    1
    36     5     7   ar
    37     7     8   ar
    38     8     9   ar
    39     9    10   ar
    40    19    20    1
    41    20    15    1
    42    10     1   ar
    43    29    24   ar
    44    10     4   ar
    45    40    35   ar
    46    33    34    1
    47     6    11    1
    48     6    12    1
@<TRIPOS>MOLECULE
*****
 44 48 0 0 0
SMALL
GASTEIGER

@<TRIPOS>ATOM
      1 C         139.7284  144.0919  156.4896 C.ar    1  UNL1        0.1534
      2 N         140.0950  144.1070  157.9440 N.ar    1  UNL1       -0.2279
      3 C         139.4473  142.9224  158.5975 C.ar    1  UNL1        0.1036
      4 C         138.6804  142.1752  157.5470 C.ar    1  UNL1        0.1142
      5 C         137.8463  140.9300  157.6085 C.ar    1  UNL1        0.1432
      6 N         137.6725  140.2072  158.9113 N.pl3   1  UNL1       -0.3414
      7 N         137.1859  140.4077  156.3671 N.ar    1  UNL1       -0.2265
      8 C         137.3596  141.1306  155.0643 C.ar    1  UNL1        0.1193
      9 C         138.1937  142.3757  155.0028 C.ar    1  UNL1        0.1021
     10 N         138.8541  142.8980  156.2442 N.ar    1  UNL1       -0.2865
     11 H         138.1060  140.5500  159.7260 H       1  UNL1        0.1438
     12 H         137.1251  139.3899  158.9516 H       1  UNL1        0.1438
     13 C         139.6448  148.9381  154.6167 C.2     1  UNL1        0.2253
     14 O         138.7393  149.3556  155.7373 O.2     1  UNL1       -0.2749
     15 N         140.1185  147.5179  154.5246 N.am    1  UNL1       -0.2740
     16 C         141.0239  147.1004  153.4040 C.3     1  UNL1        0.1255
     17 C         141.4976  145.6802  153.3119 C.3     1  UNL1        0.1641
     18 O         141.0657  144.6774  154.3404 O.3     1  UNL1       -0.3451
     19 C         140.1603  145.0947  155.4610 C.3     1  UNL1        0.1913
     20 C         139.6866  146.5151  155.5531 C.3     1  UNL1        0.1307
     21 C         141.0409  151.0284  153.9595 C.3     1  UNL1        0.0096
     22 C         140.0766  149.9409  153.5882 C.3     1  UNL1        0.0767
     23 C         139.5443  149.8563  152.1884 C.3     1  UNL1        0.0096
     24 C         139.5487  142.5502  160.0471 C.ar    1  UNL1        0.0467
     25 C         138.4311  142.8889  160.9883 C.ar    1  UNL1        0.0039
     26 C         138.5325  142.5168  162.4379 C.ar    1  UNL1        0.0047
     27 C         139.7515  141.8059  162.9462 C.ar    1  UNL1        0.0559
     28 C         140.8693  141.4671  162.0050 C.ar    1  UNL1        0.0342
     29 C         140.7679  141.8393  160.5554 C.ar    1  UNL1        0.1417
     30 F         141.8856  141.5005  159.6142 F       1  UNL1       -0.2041
     31 C         139.8529  141.4337  164.3958 C.2     1  UNL1        0.2506
     32 O         138.7007  140.7589  165.0791 O.2     1  UNL1       -0.2698
     33 N         141.1065  141.7364  165.1619 N.am    1  UNL1       -0.2658
     34 H         141.8627  142.1793  164.7134 H       1  UNL1        0.1566
     35 C         141.2078  141.3642  166.6115 C.ar    1  UNL1        0.1343
     36 C         140.5148  142.1962  167.6496 C.ar    1  UNL1        0.0383
     37 C         140.6160  141.8241  169.0992 C.ar    1  UNL1        0.0757
     38 C         141.4103  140.6200  169.5106 C.ar    1  UNL1        0.0246
     39 C         142.1033  139.7880  168.4726 C.ar    1  UNL1        0.1003
     40 N         142.0020  140.1601  167.0230 N.ar    1  UNL1       -0.2290
     41 C         139.9230  142.6560  170.1372 C.3     1  UNL1        0.4187
     42 F         139.2300  143.4880  171.1753 F       1  UNL1       -0.1659
     43 F         138.8913  141.5810  170.3100 F       1  UNL1       -0.1659
     44 F         140.9548  143.7310  169.9645 F       1  UNL1       -0.1659
@<TRIPOS>BOND
     1    21    22    1
     2    22    23    1
     3    22    13    1
     4    13    14    2
     5    13    15   am
     6    15    16    1
     7    16    17    1
     8    17    18    1
     9    18    19    1
    10    19     1    1
    11     1     2   ar
    12     2     3   ar
    13     3    24    1
    14    24    25   ar
    15    25    26   ar
    16    26    27   ar
    17    27    31    1
    18    31    32    2
    19    31    33   am
    20    33    35    1
    21    35    36   ar
    22    36    37   ar
    23    37    41    1
    24    41    42    1
    25    41    43    1
    26    41    44    1
    27    37    38   ar
    28    38    39   ar
    29    39    40   ar
    30    27    28   ar
    31    28    29   ar
    32    29    30    1
    33     3     4   ar
    34     4     5   ar
    35     5     6    1
    36     5     7   ar
    37     7     8   ar
    38     8     9   ar
    39     9    10   ar
    40    19    20    1
    41    20    15    1
    42    10     1   ar
    43    29    24   ar
    44    10     4   ar
    45    40    35   ar
    46    33    34    1
    47     6    11    1
    48     6    12    1
@<TRIPOS>MOLECULE
*****
 44 48 0 0 0
SMALL
GASTEIGER

@<TRIPOS>ATOM
      1 C         140.8527  140.6261  163.2616 C.ar    1  UNL1        0.1534
      2 N         142.0970  140.8935  162.4677 N.ar    1  UNL1       -0.2279
      3 C         141.7496  140.7886  161.0123 C.ar    1  UNL1        0.1036
      4 C         140.2907  140.4564  160.9067 C.ar    1  UNL1        0.1142
      5 C         139.3954  140.2323  159.7242 C.ar    1  UNL1        0.1432
      6 N         139.9497  140.3328  158.3340 N.pl3   1  UNL1       -0.3414
      7 N         137.9458  139.9078  159.9320 N.ar    1  UNL1       -0.2265
      8 C         137.3914  139.8074  161.3222 C.ar    1  UNL1        0.1193
      9 C         138.2867  140.0315  162.5046 C.ar    1  UNL1        0.1021
     10 N         139.7364  140.3559  162.2969 N.ar    1  UNL1       -0.2865
     11 H         140.9012  140.5458  158.1977 H       1  UNL1        0.1438
     12 H         139.3621  140.1857  157.5580 H       1  UNL1        0.1438
     13 C         142.6458  142.1280  167.9016 C.2     1  UNL1        0.2253
     14 O         143.7600  142.8743  167.2295 O.2     1  UNL1       -0.2749
     15 N         141.6405  141.3794  167.0777 N.am    1  UNL1       -0.2740
     16 C         140.5263  140.6332  167.7498 C.3     1  UNL1        0.1255
     17 C         139.5210  139.8846  166.9259 C.3     1  UNL1        0.1641
     18 O         139.6298  139.8823  165.4298 O.3     1  UNL1       -0.3451
     19 C         140.7439  140.6285  164.7577 C.3     1  UNL1        0.1913
     20 C         141.7493  141.3771  165.5817 C.3     1  UNL1        0.1307
     21 C         141.7783  143.2219  170.0927 C.3     1  UNL1        0.0096
     22 C         142.5370  142.1304  169.3976 C.3     1  UNL1        0.0767
     23 C         143.1868  141.0412  170.1986 C.3     1  UNL1        0.0096
     24 C         142.6952  140.9820  159.8640 C.ar    1  UNL1        0.0467
     25 C         143.1878  142.3567  159.5214 C.ar    1  UNL1        0.0039
     26 C         144.1334  142.5501  158.3731 C.ar    1  UNL1        0.0047
     27 C         144.5863  141.3687  157.5674 C.ar    1  UNL1        0.0559
     28 C         144.0937  139.9940  157.9099 C.ar    1  UNL1        0.0342
     29 C         143.1481  139.8006  159.0582 C.ar    1  UNL1        0.1417
     30 F         142.6555  138.4258  159.4008 F       1  UNL1       -0.2041
     31 C         145.5318  141.5621  156.4191 C.2     1  UNL1        0.2506
     32 O         145.5192  140.6013  155.2673 O.2     1  UNL1       -0.2698
     33 N         146.4899  142.7163  156.4227 N.am    1  UNL1       -0.2658
     34 H         146.4982  143.3469  157.1786 H       1  UNL1        0.1566
     35 C         147.4355  142.9096  155.2743 C.ar    1  UNL1        0.1343
     36 C         148.6326  142.0174  155.1302 C.ar    1  UNL1        0.0383
     37 C         149.5782  142.2106  153.9819 C.ar    1  UNL1        0.0757
     38 C         149.3265  143.2961  152.9778 C.ar    1  UNL1        0.0246
     39 C         148.1294  144.1883  153.1219 C.ar    1  UNL1        0.1003
     40 N         147.1838  143.9950  154.2702 N.ar    1  UNL1       -0.2290
     41 C         150.7753  141.3184  153.8378 C.3     1  UNL1        0.4187
     42 F         151.9724  140.4262  153.6938 F       1  UNL1       -0.1659
     43 F         150.1322  140.6454  152.6616 F       1  UNL1       -0.1659
     44 F         151.4184  141.9913  155.0141 F       1  UNL1       -0.1659
@<TRIPOS>BOND
     1    21    22    1
     2    22    23    1
     3    22    13    1
     4    13    14    2
     5    13    15   am
     6    15    16    1
     7    16    17    1
     8    17    18    1
     9    18    19    1
    10    19     1    1
    11     1     2   ar
    12     2     3   ar
    13     3    24    1
    14    24    25   ar
    15    25    26   ar
    16    26    27   ar
    17    27    31    1
    18    31    32    2
    19    31    33   am
    20    33    35    1
    21    35    36   ar
    22    36    37   ar
    23    37    41    1
    24    41    42    1
    25    41    43    1
    26    41    44    1
    27    37    38   ar
    28    38    39   ar
    29    39    40   ar
    30    27    28   ar
    31    28    29   ar
    32    29    30    1
    33     3     4   ar
    34     4     5   ar
    35     5     6    1
    36     5     7   ar
    37     7     8   ar
    38     8     9   ar
    39     9    10   ar
    40    19    20    1
    41    20    15    1
    42    10     1   ar
    43    29    24   ar
    44    10     4   ar
    45    40    35   ar
    46    33    34    1
    47     6    11    1
    48     6    12    1
@<TRIPOS>MOLECULE
*****
 44 48 0 0 0
SMALL
GASTEIGER

@<TRIPOS>ATOM
      1 C         141.0811  141.3273  163.6647 C.ar    1  UNL1        0.1534
      2 N         141.5965  140.3876  162.6153 N.ar    1  UNL1       -0.2279
      3 C         140.7503  140.5541  161.3881 C.ar    1  UNL1        0.1036
      4 C         139.7118  141.5967  161.6790 C.ar    1  UNL1        0.1142
      5 C         138.6065  142.1727  160.8444 C.ar    1  UNL1        0.1432
      6 N         138.4021  141.6948  159.4374 N.pl3   1  UNL1       -0.3414
      7 N         137.7057  143.2265  161.4170 N.ar    1  UNL1       -0.2265
      8 C         137.9101  143.7044  162.8240 C.ar    1  UNL1        0.1193
      9 C         139.0154  143.1284  163.6586 C.ar    1  UNL1        0.1021
     10 N         139.9163  142.0746  163.0861 N.ar    1  UNL1       -0.2865
     11 H         138.9934  141.0031  159.0616 H       1  UNL1        0.1438
     12 H         137.6766  142.0728  158.8896 H       1  UNL1        0.1438
     13 C         140.7974  140.3724  168.7645 C.2     1  UNL1        0.2253
     14 O         139.5509  139.5675  168.5445 O.2     1  UNL1       -0.2749
     15 N         141.4916  141.0135  167.5996 N.am    1  UNL1       -0.2740
     16 C         142.7381  141.8184  167.8197 C.3     1  UNL1        0.1255
     17 C         143.4322  142.4595  166.6547 C.3     1  UNL1        0.1641
     18 O         142.8799  142.2958  165.2698 O.3     1  UNL1       -0.3451
     19 C         141.6334  141.4910  165.0497 C.3     1  UNL1        0.1913
     20 C         140.9392  140.8498  166.2147 C.3     1  UNL1        0.1307
     21 C         140.8045  141.6020  171.0532 C.3     1  UNL1        0.0096
     22 C         141.3497  140.5361  170.1495 C.3     1  UNL1        0.0767
     23 C         142.4473  139.6340  170.6307 C.3     1  UNL1        0.0096
     24 C         140.9137  139.8088  160.0966 C.ar    1  UNL1        0.0467
     25 C         142.0785  140.1081  159.2002 C.ar    1  UNL1        0.0039
     26 C         142.2419  139.3629  157.9087 C.ar    1  UNL1        0.0047
     27 C         141.2406  138.3183  157.5137 C.ar    1  UNL1        0.0559
     28 C         140.0758  138.0189  158.4101 C.ar    1  UNL1        0.0342
     29 C         139.9123  138.7642  159.7016 C.ar    1  UNL1        0.1417
     30 F         138.7475  138.4648  160.5980 F       1  UNL1       -0.2041
     31 C         141.4041  137.5730  156.2222 C.2     1  UNL1        0.2506
     32 O         142.2550  138.1464  155.1281 O.2     1  UNL1       -0.2698
     33 N         140.7166  136.2545  156.0249 N.am    1  UNL1       -0.2658
     34 H         140.1582  135.8782  156.7431 H       1  UNL1        0.1566
     35 C         140.8802  135.5093  154.7334 C.ar    1  UNL1        0.1343
     36 C         141.7381  134.2800  154.6803 C.ar    1  UNL1        0.0383
     37 C         141.9016  133.5347  153.3889 C.ar    1  UNL1        0.0757
     38 C         141.2073  134.0189  152.1506 C.ar    1  UNL1        0.0246
     39 C         140.3494  135.2482  152.2036 C.ar    1  UNL1        0.1003
     40 N         140.1858  135.9934  153.4951 N.ar    1  UNL1       -0.2290
     41 C         142.7595  132.3054  153.3358 C.3     1  UNL1        0.4187
     42 F         143.6174  131.0761  153.2827 F       1  UNL1       -0.1659
     43 F         143.2987  132.6228  154.6991 F       1  UNL1       -0.1659
     44 F         142.2204  131.9881  151.9725 F       1  UNL1       -0.1659
@<TRIPOS>BOND
     1    21    22    1
     2    22    23    1
     3    22    13    1
     4    13    14    2
     5    13    15   am
     6    15    16    1
     7    16    17    1
     8    17    18    1
     9    18    19    1
    10    19     1    1
    11     1     2   ar
    12     2     3   ar
    13     3    24    1
    14    24    25   ar
    15    25    26   ar
    16    26    27   ar
    17    27    31    1
    18    31    32    2
    19    31    33   am
    20    33    35    1
    21    35    36   ar
    22    36    37   ar
    23    37    41    1
    24    41    42    1
    25    41    43    1
    26    41    44    1
    27    37    38   ar
    28    38    39   ar
    29    39    40   ar
    30    27    28   ar
    31    28    29   ar
    32    29    30    1
    33     3     4   ar
    34     4     5   ar
    35     5     6    1
    36     5     7   ar
    37     7     8   ar
    38     8     9   ar
    39     9    10   ar
    40    19    20    1
    41    20    15    1
    42    10     1   ar
    43    29    24   ar
    44    10     4   ar
    45    40    35   ar
    46    33    34    1
    47     6    11    1
    48     6    12    1
@<TRIPOS>MOLECULE
*****
 44 48 0 0 0
SMALL
GASTEIGER

@<TRIPOS>ATOM
      1 C         140.2993  140.6285  163.7289 C.ar    1  UNL1        0.1534
      2 N         140.1598  141.9138  162.9682 N.ar    1  UNL1       -0.2279
      3 C         140.6972  141.6943  161.5850 C.ar    1  UNL1        0.1036
      4 C         141.1688  140.2735  161.4909 C.ar    1  UNL1        0.1142
      5 C         141.7903  139.4945  160.3699 C.ar    1  UNL1        0.1432
      6 N         142.0362  140.1532  159.0449 N.pl3   1  UNL1       -0.3414
      7 N         142.1660  138.0567  160.5739 N.ar    1  UNL1       -0.2265
      8 C         141.9201  137.3980  161.8989 C.ar    1  UNL1        0.1193
      9 C         141.2985  138.1770  163.0199 C.ar    1  UNL1        0.1021
     10 N         140.9229  139.6148  162.8159 N.ar    1  UNL1       -0.2865
     11 H         141.7897  141.0968  158.9110 H       1  UNL1        0.1438
     12 H         142.4442  139.6418  158.3091 H       1  UNL1        0.1438
     13 C         140.7482  141.7529  168.7820 C.2     1  UNL1        0.2253
     14 O         141.7962  142.7769  168.4611 O.2     1  UNL1       -0.2749
     15 N         140.1120  140.9597  167.6793 N.am    1  UNL1       -0.2740
     16 C         139.0640  139.9356  168.0002 C.3     1  UNL1        0.1255
     17 C         138.4278  139.1426  166.8974 C.3     1  UNL1        0.1641
     18 O         138.8396  139.3735  165.4736 O.3     1  UNL1       -0.3451
     19 C         139.8875  140.3976  165.1526 C.3     1  UNL1        0.1913
     20 C         140.5238  141.1907  166.2555 C.3     1  UNL1        0.1307
     21 C         139.4471  142.5111  170.8993 C.3     1  UNL1        0.0096
     22 C         140.3364  141.5219  170.2058 C.3     1  UNL1        0.0767
     23 C         140.8139  140.3018  170.9361 C.3     1  UNL1        0.0096
     24 C         140.7532  142.7163  160.4885 C.ar    1  UNL1        0.0467
     25 C         141.8480  143.7415  160.4738 C.ar    1  UNL1        0.0039
     26 C         141.9040  144.7634  159.3772 C.ar    1  UNL1        0.0047
     27 C         140.8651  144.7603  158.2953 C.ar    1  UNL1        0.0559
     28 C         139.7702  143.7351  158.3099 C.ar    1  UNL1        0.0342
     29 C         139.7142  142.7131  159.4065 C.ar    1  UNL1        0.1417
     30 F         138.6193  141.6880  159.4211 F       1  UNL1       -0.2041
     31 C         140.9210  145.7822  157.1987 C.2     1  UNL1        0.2506
     32 O         142.2472  146.2560  156.6821 O.2     1  UNL1       -0.2698
     33 N         139.6509  146.3304  156.6188 N.am    1  UNL1       -0.2658
     34 H         138.7805  146.0195  156.9579 H       1  UNL1        0.1566
     35 C         139.7070  147.3524  155.5222 C.ar    1  UNL1        0.1343
     36 C         139.1272  148.7186  155.7400 C.ar    1  UNL1        0.0383
     37 C         139.1833  149.7406  154.6435 C.ar    1  UNL1        0.0757
     38 C         139.8191  149.3964  153.3293 C.ar    1  UNL1        0.0246
     39 C         140.3988  148.0302  153.1115 C.ar    1  UNL1        0.1003
     40 N         140.3428  147.0082  154.2080 N.ar    1  UNL1       -0.2290
     41 C         138.6035  151.1068  154.8613 C.3     1  UNL1        0.4187
     42 F         138.0237  152.4730  155.0790 F       1  UNL1       -0.1659
     43 F         139.2387  151.5794  153.5873 F       1  UNL1       -0.1659
     44 F         137.9682  150.6341  156.1353 F       1  UNL1       -0.1659
@<TRIPOS>BOND
     1    21    22    1
     2    22    23    1
     3    22    13    1
     4    13    14    2
     5    13    15   am
     6    15    16    1
     7    16    17    1
     8    17    18    1
     9    18    19    1
    10    19     1    1
    11     1     2   ar
    12     2     3   ar
    13     3    24    1
    14    24    25   ar
    15    25    26   ar
    16    26    27   ar
    17    27    31    1
    18    31    32    2
    19    31    33   am
    20    33    35    1
    21    35    36   ar
    22    36    37   ar
    23    37    41    1
    24    41    42    1
    25    41    43    1
    26    41    44    1
    27    37    38   ar
    28    38    39   ar
    29    39    40   ar
    30    27    28   ar
    31    28    29   ar
    32    29    30    1
    33     3     4   ar
    34     4     5   ar
    35     5     6    1
    36     5     7   ar
    37     7     8   ar
    38     8     9   ar
    39     9    10   ar
    40    19    20    1
    41    20    15    1
    42    10     1   ar
    43    29    24   ar
    44    10     4   ar
    45    40    35   ar
    46    33    34    1
    47     6    11    1
    48     6    12    1
@<TRIPOS>MOLECULE
*****
 44 48 0 0 0
SMALL
GASTEIGER

@<TRIPOS>ATOM
      1 C         141.7558  140.0422  163.9840 C.ar    1  UNL1        0.1534
      2 N         142.6976  140.6138  162.9660 N.ar    1  UNL1       -0.2279
      3 C         142.2057  140.2173  161.6055 C.ar    1  UNL1        0.1036
      4 C         140.9600  139.4008  161.7827 C.ar    1  UNL1        0.1142
      5 C         140.0429  138.7418  160.7955 C.ar    1  UNL1        0.1432
      6 N         140.3210  138.8500  159.3255 N.pl3   1  UNL1       -0.3414
      7 N         138.8479  137.9746  161.2783 N.ar    1  UNL1       -0.2265
      8 C         138.5698  137.8663  162.7483 C.ar    1  UNL1        0.1193
      9 C         139.4869  138.5253  163.7356 C.ar    1  UNL1        0.1021
     10 N         140.6820  139.2925  163.2528 N.ar    1  UNL1       -0.2865
     11 H         141.1054  139.3536  159.0086 H       1  UNL1        0.1438
     12 H         139.7191  138.4175  158.6775 H       1  UNL1        0.1438
     13 C         140.7074  142.6914  168.3295 C.2     1  UNL1        0.2253
     14 O         139.9585  143.7129  167.5260 O.2     1  UNL1       -0.2749
     15 N         141.3440  141.5183  167.6449 N.am    1  UNL1       -0.2740
     16 C         142.0930  140.4968  168.4484 C.3     1  UNL1        0.1255
     17 C         142.7295  139.3238  167.7637 C.3     1  UNL1        0.1641
     18 O         142.6171  139.1723  166.2756 O.3     1  UNL1       -0.3451
     19 C         141.8682  140.1937  165.4721 C.3     1  UNL1        0.1913
     20 C         141.2316  141.3668  166.1568 C.3     1  UNL1        0.1307
     21 C         142.1167  143.2811  170.4310 C.3     1  UNL1        0.0096
     22 C         140.8198  142.8429  169.8176 C.3     1  UNL1        0.0767
     23 C         139.6354  142.5562  170.6922 C.3     1  UNL1        0.0096
     24 C         142.8470  140.5747  160.2974 C.ar    1  UNL1        0.0467
     25 C         142.5049  141.8704  159.6237 C.ar    1  UNL1        0.0039
     26 C         143.1462  142.2278  158.3156 C.ar    1  UNL1        0.0047
     27 C         144.1295  141.2894  157.6812 C.ar    1  UNL1        0.0559
     28 C         144.4716  139.9936  158.3550 C.ar    1  UNL1        0.0342
     29 C         143.8304  139.6362  159.6631 C.ar    1  UNL1        0.1417
     30 F         144.1724  138.3405  160.3368 F       1  UNL1       -0.2041
     31 C         144.7708  141.6468  156.3731 C.2     1  UNL1        0.2506
     32 O         144.2141  142.7679  155.5466 O.2     1  UNL1       -0.2698
     33 N         145.9686  140.8831  155.8916 N.am    1  UNL1       -0.2658
     34 H         146.3340  140.1472  156.4342 H       1  UNL1        0.1566
     35 C         146.6098  141.2405  154.5835 C.ar    1  UNL1        0.1343
     36 C         147.8001  142.1528  154.5563 C.ar    1  UNL1        0.0383
     37 C         148.4414  142.5103  153.2483 C.ar    1  UNL1        0.0757
     38 C         147.8922  141.9555  151.9675 C.ar    1  UNL1        0.0246
     39 C         146.7019  141.0431  151.9947 C.ar    1  UNL1        0.1003
     40 N         146.0607  140.6856  153.3027 N.ar    1  UNL1       -0.2290
     41 C         149.6317  143.4227  153.2211 C.3     1  UNL1        0.4187
     42 F         150.8220  144.3350  153.1939 F       1  UNL1       -0.1659
     43 F         150.5432  142.2368  153.3343 F       1  UNL1       -0.1659
     44 F         148.7202  144.6085  153.1079 F       1  UNL1       -0.1659
@<TRIPOS>BOND
     1    21    22    1
     2    22    23    1
     3    22    13    1
     4    13    14    2
     5    13    15   am
     6    15    16    1
     7    16    17    1
     8    17    18    1
     9    18    19    1
    10    19     1    1
    11     1     2   ar
    12     2     3   ar
    13     3    24    1
    14    24    25   ar
    15    25    26   ar
    16    26    27   ar
    17    27    31    1
    18    31    32    2
    19    31    33   am
    20    33    35    1
    21    35    36   ar
    22    36    37   ar
    23    37    41    1
    24    41    42    1
    25    41    43    1
    26    41    44    1
    27    37    38   ar
    28    38    39   ar
    29    39    40   ar
    30    27    28   ar
    31    28    29   ar
    32    29    30    1
    33     3     4   ar
    34     4     5   ar
    35     5     6    1
    36     5     7   ar
    37     7     8   ar
    38     8     9   ar
    39     9    10   ar
    40    19    20    1
    41    20    15    1
    42    10     1   ar
    43    29    24   ar
    44    10     4   ar
    45    40    35   ar
    46    33    34    1
    47     6    11    1
    48     6    12    1
@<TRIPOS>MOLECULE
*****
 44 48 0 0 0
SMALL
GASTEIGER

@<TRIPOS>ATOM
      1 C         140.9733  140.5010  163.7388 C.ar    1  UNL1        0.1534
      2 N         140.9145  139.3931  162.7293 N.ar    1  UNL1       -0.2279
      3 C         141.4734  139.9127  161.4379 C.ar    1  UNL1        0.1036
      4 C         141.8774  141.3417  161.6493 C.ar    1  UNL1        0.1142
      5 C         142.4869  142.3588  160.7306 C.ar    1  UNL1        0.1432
      6 N         142.7960  141.9953  159.3085 N.pl3   1  UNL1       -0.3414
      7 N         142.7873  143.7395  161.2340 N.ar    1  UNL1       -0.2265
      8 C         142.4782  144.1031  162.6561 C.ar    1  UNL1        0.1193
      9 C         141.8687  143.0860  163.5747 C.ar    1  UNL1        0.1021
     10 N         141.5684  141.7053  163.0713 N.ar    1  UNL1       -0.2865
     11 H         142.5988  141.0891  158.9781 H       1  UNL1        0.1438
     12 H         143.1960  142.6628  158.7056 H       1  UNL1        0.1438
     13 C         141.5682  141.7977  168.7352 C.2     1  UNL1        0.2253
     14 O         142.7782  142.6101  168.3803 O.2     1  UNL1       -0.2749
     15 N         140.8145  141.0674  167.6636 N.am    1  UNL1       -0.2740
     16 C         139.6045  140.2550  168.0185 C.3     1  UNL1        0.1255
     17 C         138.8508  139.5246  166.9469 C.3     1  UNL1        0.1641
     18 O         139.3071  139.6066  165.5203 O.3     1  UNL1       -0.3451
     19 C         140.5170  140.4189  165.1653 C.3     1  UNL1        0.1913
     20 C         141.2707  141.1494  166.2371 C.3     1  UNL1        0.1307
     21 C         140.0389  142.6379  170.6602 C.3     1  UNL1        0.0096
     22 C         141.1119  141.7157  170.1618 C.3     1  UNL1        0.0767
     23 C         141.7287  140.7117  171.0899 C.3     1  UNL1        0.0096
     24 C         141.6050  139.1392  160.1595 C.ar    1  UNL1        0.0467
     25 C         142.8433  138.3357  159.8931 C.ar    1  UNL1        0.0039
     26 C         142.9749  137.5622  158.6147 C.ar    1  UNL1        0.0047
     27 C         141.8682  137.5921  157.6026 C.ar    1  UNL1        0.0559
     28 C         140.6299  138.3955  157.8689 C.ar    1  UNL1        0.0342
     29 C         140.4982  139.1691  159.1473 C.ar    1  UNL1        0.1417
     30 F         139.2599  139.9725  159.4137 F       1  UNL1       -0.2041
     31 C         141.9998  136.8185  156.3242 C.2     1  UNL1        0.2506
     32 O         143.1633  137.0704  155.4117 O.2     1  UNL1       -0.2698
     33 N         140.9680  135.7931  155.9584 N.am    1  UNL1       -0.2658
     34 H         140.2044  135.6277  156.5574 H       1  UNL1        0.1566
     35 C         141.0997  135.0196  154.6800 C.ar    1  UNL1        0.1343
     36 C         141.4948  133.5730  154.7160 C.ar    1  UNL1        0.0383
     37 C         141.6266  132.7994  153.4377 C.ar    1  UNL1        0.0757
     38 C         141.3632  133.4725  152.1233 C.ar    1  UNL1        0.0246
     39 C         140.9681  134.9190  152.0873 C.ar    1  UNL1        0.1003
     40 N         140.8364  135.6926  153.3656 N.ar    1  UNL1       -0.2290
     41 C         142.0217  131.3528  153.4737 C.3     1  UNL1        0.4187
     42 F         142.4168  129.9063  153.5097 F       1  UNL1       -0.1659
     43 F         140.5851  130.9562  153.3037 F       1  UNL1       -0.1659
     44 F         143.4583  131.7494  153.6437 F       1  UNL1       -0.1659
@<TRIPOS>BOND
     1    21    22    1
     2    22    23    1
     3    22    13    1
     4    13    14    2
     5    13    15   am
     6    15    16    1
     7    16    17    1
     8    17    18    1
     9    18    19    1
    10    19     1    1
    11     1     2   ar
    12     2     3   ar
    13     3    24    1
    14    24    25   ar
    15    25    26   ar
    16    26    27   ar
    17    27    31    1
    18    31    32    2
    19    31    33   am
    20    33    35    1
    21    35    36   ar
    22    36    37   ar
    23    37    41    1
    24    41    42    1
    25    41    43    1
    26    41    44    1
    27    37    38   ar
    28    38    39   ar
    29    39    40   ar
    30    27    28   ar
    31    28    29   ar
    32    29    30    1
    33     3     4   ar
    34     4     5   ar
    35     5     6    1
    36     5     7   ar
    37     7     8   ar
    38     8     9   ar
    39     9    10   ar
    40    19    20    1
    41    20    15    1
    42    10     1   ar
    43    29    24   ar
    44    10     4   ar
    45    40    35   ar
    46    33    34    1
    47     6    11    1
    48     6    12    1
