@<TRIPOS>MOLECULE
*****
 30 32 0 0 0
SMALL
GASTEIGER

@<TRIPOS>ATOM
      1 C         137.3100  138.2573  167.5930 C.3     1  UNL1        0.1166
      2 N         138.4731  139.1643  167.3201 N.am    1  UNL1       -0.2592
      3 C         139.0653  139.9797  168.4312 C.3     1  UNL1        0.1166
      4 C         139.0442  139.2559  165.9361 C.2     1  UNL1        0.3264
      5 O         138.4521  138.4405  164.8249 O.2     1  UNL1       -0.2506
      6 N         140.2073  140.1629  165.6631 N.am    1  UNL1       -0.1644
      7 N         140.8811  140.3580  164.3373 N.2     1  UNL1       -0.1786
      8 C         141.9911  141.3497  164.5229 C.2     1  UNL1        0.0808
      9 C         142.0033  141.7676  165.9634 C.3     1  UNL1        0.0719
     10 C         140.9008  141.0341  166.6682 C.3     1  UNL1        0.1079
     11 C         142.9249  141.8379  163.4553 C.ar    1  UNL1        0.0448
     12 C         142.3891  142.6080  162.2849 C.ar    1  UNL1        0.0331
     13 C         143.3229  143.0961  161.2174 C.ar    1  UNL1        0.1403
     14 F         142.7871  143.8662  160.0469 F       1  UNL1       -0.2042
     15 C         144.7926  142.8141  161.3202 C.ar    1  UNL1        0.0319
     16 C         145.3284  142.0441  162.4906 C.ar    1  UNL1        0.0320
     17 C         144.3946  141.5560  163.5581 C.ar    1  UNL1        0.1414
     18 F         144.9304  140.7859  164.7286 F       1  UNL1       -0.2041
     19 C         141.3850  141.7848  167.8732 C.ar    1  UNL1       -0.0038
     20 C         142.7156  141.4511  168.4800 C.ar    1  UNL1       -0.0027
     21 C         143.1998  142.2018  169.6850 C.ar    1  UNL1       -0.0003
     22 C         142.3534  143.2861  170.2832 C.ar    1  UNL1       -0.0000
     23 C         141.0229  143.6197  169.6765 C.ar    1  UNL1       -0.0003
     24 C         140.5386  142.8691  168.4714 C.ar    1  UNL1       -0.0027
     25 C         139.8996  140.4576  167.6248 C.3     1  UNL1        0.0263
     26 C         140.3616  139.8345  168.9087 C.3     1  UNL1        0.0189
     27 C         139.6414  140.1349  170.1898 C.3     1  UNL1        0.0652
     28 N         140.4014  140.1921  171.4818 N.3     1  UNL1       -0.3211
     29 H         140.7650  139.2654  171.7037 H       1  UNL1        0.1189
     30 H         139.7793  140.5011  172.2288 H       1  UNL1        0.1189
@<TRIPOS>BOND
     1     1     2    1
     2     2     3    1
     3     2     4   am
     4     4     5    2
     5     4     6   am
     6     6     7    1
     7     7     8    2
     8     8    11    1
     9    11    12   ar
    10    12    13   ar
    11    13    14    1
    12    13    15   ar
    13    15    16   ar
    14    16    17   ar
    15    17    18    1
    16     8     9    1
    17     9    10    1
    18    10    25    1
    19    25    26    1
    20    26    27    1
    21    27    28    1
    22    10    19    1
    23    19    20   ar
    24    20    21   ar
    25    21    22   ar
    26    22    23   ar
    27    23    24   ar
    28    10     6    1
    29    24    19   ar
    30    17    11   ar
    31    28    29    1
    32    28    30    1
@<TRIPOS>MOLECULE
*****
 30 32 0 0 0
SMALL
GASTEIGER

@<TRIPOS>ATOM
      1 C         144.3742  142.6260  159.9232 C.3     1  UNL1        0.1166
      2 N         143.5663  142.5961  161.1867 N.am    1  UNL1       -0.2592
      3 C         142.1593  143.1162  161.1898 C.3     1  UNL1        0.1166
      4 C         144.1653  142.0460  162.4471 C.2     1  UNL1        0.3264
      5 O         145.5723  141.5259  162.4441 O.2     1  UNL1       -0.2506
      6 N         143.3575  142.0161  163.7106 N.am    1  UNL1       -0.1644
      7 N         143.8195  141.4986  165.0405 N.2     1  UNL1       -0.1786
      8 C         142.6933  141.6611  166.0179 C.2     1  UNL1        0.0808
      9 C         141.5351  142.2789  165.2920 C.3     1  UNL1        0.0719
     10 C         141.9456  142.4983  163.8660 C.3     1  UNL1        0.1079
     11 C         142.7205  141.2737  167.4668 C.ar    1  UNL1        0.0448
     12 C         142.9097  142.3242  168.5206 C.ar    1  UNL1        0.0331
     13 C         142.9369  141.9367  169.9694 C.ar    1  UNL1        0.1403
     14 F         143.1262  142.9873  171.0233 F       1  UNL1       -0.2042
     15 C         142.7748  140.4988  170.3644 C.ar    1  UNL1        0.0319
     16 C         142.5855  139.4483  169.3106 C.ar    1  UNL1        0.0320
     17 C         142.5583  139.8357  167.8618 C.ar    1  UNL1        0.1414
     18 F         142.3690  138.7852  166.8079 F       1  UNL1       -0.2041
     19 C         140.5589  143.0505  163.7168 C.ar    1  UNL1       -0.0038
     20 C         140.1727  144.3113  164.4319 C.ar    1  UNL1       -0.0027
     21 C         138.7861  144.8635  164.2826 C.ar    1  UNL1       -0.0003
     22 C         137.7857  144.1550  163.4183 C.ar    1  UNL1       -0.0000
     23 C         138.1718  142.8943  162.7032 C.ar    1  UNL1       -0.0003
     24 C         139.5585  142.3420  162.8524 C.ar    1  UNL1       -0.0027
     25 C         142.0662  142.8331  162.4089 C.3     1  UNL1        0.0263
     26 C         142.1938  144.2637  161.9762 C.3     1  UNL1        0.0189
     27 C         141.2398  144.8299  160.9665 C.3     1  UNL1        0.0652
     28 N         140.4668  146.0761  161.2815 N.3     1  UNL1       -0.3211
     29 H         139.8164  145.8891  162.0447 H       1  UNL1        0.1189
     30 H         139.9460  146.3711  160.4556 H       1  UNL1        0.1189
@<TRIPOS>BOND
     1     1     2    1
     2     2     3    1
     3     2     4   am
     4     4     5    2
     5     4     6   am
     6     6     7    1
     7     7     8    2
     8     8    11    1
     9    11    12   ar
    10    12    13   ar
    11    13    14    1
    12    13    15   ar
    13    15    16   ar
    14    16    17   ar
    15    17    18    1
    16     8     9    1
    17     9    10    1
    18    10    25    1
    19    25    26    1
    20    26    27    1
    21    27    28    1
    22    10    19    1
    23    19    20   ar
    24    20    21   ar
    25    21    22   ar
    26    22    23   ar
    27    23    24   ar
    28    10     6    1
    29    24    19   ar
    30    17    11   ar
    31    28    29    1
    32    28    30    1
@<TRIPOS>MOLECULE
*****
 30 32 0 0 0
SMALL
GASTEIGER

@<TRIPOS>ATOM
      1 C         144.2846  142.8991  160.8621 C.3     1  UNL1        0.1166
      2 N         143.4131  142.7696  162.0761 N.am    1  UNL1       -0.2592
      3 C         141.9981  143.2663  162.0400 C.3     1  UNL1        0.1166
      4 C         143.9565  142.1434  163.3261 C.2     1  UNL1        0.3264
      5 O         145.3714  141.6467  163.3622 O.2     1  UNL1       -0.2506
      6 N         143.0850  142.0139  164.5400 N.am    1  UNL1       -0.1644
      7 N         143.4874  141.4133  165.8543 N.2     1  UNL1       -0.1786
      8 C         142.3092  141.4905  166.7794 C.2     1  UNL1        0.0808
      9 C         141.1785  142.1388  166.0369 C.3     1  UNL1        0.0719
     10 C         141.6580  142.4623  164.6529 C.3     1  UNL1        0.1079
     11 C         142.2687  141.0046  168.1980 C.ar    1  UNL1        0.0448
     12 C         142.5926  139.5737  168.5102 C.ar    1  UNL1        0.0331
     13 C         142.5521  139.0879  169.9288 C.ar    1  UNL1        0.1403
     14 F         142.8760  137.6569  170.2411 F       1  UNL1       -0.2042
     15 C         142.1878  140.0330  171.0351 C.ar    1  UNL1        0.0319
     16 C         141.8639  141.4639  170.7229 C.ar    1  UNL1        0.0320
     17 C         141.9044  141.9497  169.3044 C.ar    1  UNL1        0.1414
     18 F         141.5805  143.3807  168.9921 F       1  UNL1       -0.2041
     19 C         140.2706  143.0019  164.4683 C.ar    1  UNL1       -0.0038
     20 C         139.8331  144.2208  165.2251 C.ar    1  UNL1       -0.0027
     21 C         138.4458  144.7604  165.0405 C.ar    1  UNL1       -0.0003
     22 C         137.4959  144.0810  164.0992 C.ar    1  UNL1       -0.0000
     23 C         137.9334  142.8621  163.3424 C.ar    1  UNL1       -0.0003
     24 C         139.3208  142.3225  163.5270 C.ar    1  UNL1       -0.0027
     25 C         141.8475  142.8986  163.2303 C.3     1  UNL1        0.0263
     26 C         142.0044  144.3549  162.9071 C.3     1  UNL1        0.0189
     27 C         141.0647  145.0145  161.9417 C.3     1  UNL1        0.0652
     28 N         140.4597  146.3460  162.2749 N.3     1  UNL1       -0.3211
     29 H         139.8377  146.2456  163.0771 H       1  UNL1        0.1189
     30 H         139.9291  146.6884  161.4739 H       1  UNL1        0.1189
@<TRIPOS>BOND
     1     1     2    1
     2     2     3    1
     3     2     4   am
     4     4     5    2
     5     4     6   am
     6     6     7    1
     7     7     8    2
     8     8    11    1
     9    11    12   ar
    10    12    13   ar
    11    13    14    1
    12    13    15   ar
    13    15    16   ar
    14    16    17   ar
    15    17    18    1
    16     8     9    1
    17     9    10    1
    18    10    25    1
    19    25    26    1
    20    26    27    1
    21    27    28    1
    22    10    19    1
    23    19    20   ar
    24    20    21   ar
    25    21    22   ar
    26    22    23   ar
    27    23    24   ar
    28    10     6    1
    29    24    19   ar
    30    17    11   ar
    31    28    29    1
    32    28    30    1
@<TRIPOS>MOLECULE
*****
 30 32 0 0 0
SMALL
GASTEIGER

@<TRIPOS>ATOM
      1 C         141.4111  138.6462  160.0825 C.3     1  UNL1        0.1166
      2 N         141.5016  139.4105  161.3700 N.am    1  UNL1       -0.2592
      3 C         142.0315  140.8138  161.3735 C.3     1  UNL1        0.1166
      4 C         141.0623  138.7715  162.6540 C.2     1  UNL1        0.3264
      5 O         140.5324  137.3682  162.6506 O.2     1  UNL1       -0.2506
      6 N         141.1529  139.5357  163.9415 N.am    1  UNL1       -0.1644
      7 N         140.7534  139.0311  165.2964 N.2     1  UNL1       -0.1786
      8 C         141.0125  140.1223  166.2924 C.2     1  UNL1        0.0808
      9 C         141.5720  141.3015  165.5531 C.3     1  UNL1        0.0719
     10 C         141.6588  140.9390  164.1002 C.3     1  UNL1        0.1079
     11 C         140.7568  140.0476  167.7687 C.ar    1  UNL1        0.0448
     12 C         139.3670  140.2377  168.2997 C.ar    1  UNL1        0.0331
     13 C         139.1114  140.1629  169.7758 C.ar    1  UNL1        0.1403
     14 F         137.7215  140.3531  170.3070 F       1  UNL1       -0.2042
     15 C         140.2457  139.8980  170.7209 C.ar    1  UNL1        0.0319
     16 C         141.6356  139.7079  170.1899 C.ar    1  UNL1        0.0320
     17 C         141.8911  139.7827  168.7137 C.ar    1  UNL1        0.1414
     18 F         143.2811  139.5925  168.1826 F       1  UNL1       -0.2041
     19 C         142.2068  142.3270  163.9485 C.ar    1  UNL1       -0.0038
     20 C         143.5486  142.6707  164.5244 C.ar    1  UNL1       -0.0027
     21 C         144.0966  144.0587  164.3726 C.ar    1  UNL1       -0.0003
     22 C         143.3029  145.1030  163.6450 C.ar    1  UNL1       -0.0000
     23 C         141.9613  144.7594  163.0691 C.ar    1  UNL1       -0.0003
     24 C         141.4132  143.3713  163.2208 C.ar    1  UNL1       -0.0027
     25 C         141.8602  140.8666  162.6155 C.3     1  UNL1        0.0263
     26 C         143.1946  141.2086  162.0221 C.3     1  UNL1        0.0189
     27 C         144.2681  140.1642  161.9382 C.3     1  UNL1        0.0652
     28 N         144.8087  139.5419  163.1914 N.3     1  UNL1       -0.3211
     29 H         145.3009  140.2491  163.7372 H       1  UNL1        0.1189
     30 H         145.4541  138.7909  162.9470 H       1  UNL1        0.1189
@<TRIPOS>BOND
     1     1     2    1
     2     2     3    1
     3     2     4   am
     4     4     5    2
     5     4     6   am
     6     6     7    1
     7     7     8    2
     8     8    11    1
     9    11    12   ar
    10    12    13   ar
    11    13    14    1
    12    13    15   ar
    13    15    16   ar
    14    16    17   ar
    15    17    18    1
    16     8     9    1
    17     9    10    1
    18    10    25    1
    19    25    26    1
    20    26    27    1
    21    27    28    1
    22    10    19    1
    23    19    20   ar
    24    20    21   ar
    25    21    22   ar
    26    22    23   ar
    27    23    24   ar
    28    10     6    1
    29    24    19   ar
    30    17    11   ar
    31    28    29    1
    32    28    30    1
@<TRIPOS>MOLECULE
*****
 30 32 0 0 0
SMALL
GASTEIGER

@<TRIPOS>ATOM
      1 C         139.3868  137.9980  161.1810 C.3     1  UNL1        0.1166
      2 N         140.1701  138.7066  162.2461 N.am    1  UNL1       -0.2592
      3 C         141.4687  139.3746  161.9030 C.3     1  UNL1        0.1166
      4 C         139.6549  138.7474  163.6542 C.2     1  UNL1        0.3264
      5 O         138.3564  138.0795  163.9974 O.2     1  UNL1       -0.2506
      6 N         140.4382  139.4560  164.7192 N.am    1  UNL1       -0.1644
      7 N         140.0514  139.5796  166.1632 N.2     1  UNL1       -0.1786
      8 C         141.1200  140.3654  166.8637 C.2     1  UNL1        0.0808
      9 C         142.1672  140.7275  165.8526 C.3     1  UNL1        0.0719
     10 C         141.7458  140.1655  164.5273 C.3     1  UNL1        0.1079
     11 C         141.1382  140.7258  168.3197 C.ar    1  UNL1        0.0448
     12 C         140.2616  141.8310  168.8297 C.ar    1  UNL1        0.0331
     13 C         140.2798  142.1914  170.2857 C.ar    1  UNL1        0.1403
     14 F         139.4032  143.2966  170.7958 F       1  UNL1       -0.2042
     15 C         141.1745  141.4466  171.2315 C.ar    1  UNL1        0.0319
     16 C         142.0511  140.3415  170.7215 C.ar    1  UNL1        0.0320
     17 C         142.0329  139.9811  169.2656 C.ar    1  UNL1        0.1414
     18 F         142.9095  138.8758  168.7555 F       1  UNL1       -0.2041
     19 C         143.0210  140.7845  164.0368 C.ar    1  UNL1       -0.0038
     20 C         144.3425  140.2113  164.4554 C.ar    1  UNL1       -0.0027
     21 C         145.6177  140.8303  163.9649 C.ar    1  UNL1       -0.0003
     22 C         145.5715  142.0225  163.0558 C.ar    1  UNL1       -0.0000
     23 C         144.2501  142.5957  162.6372 C.ar    1  UNL1       -0.0003
     24 C         142.9748  141.9767  163.1277 C.ar    1  UNL1       -0.0027
     25 C         141.5910  139.7328  163.0994 C.3     1  UNL1        0.0263
     26 C         142.4951  138.6784  162.5331 C.3     1  UNL1        0.0189
     27 C         143.1103  138.8668  161.1780 C.3     1  UNL1        0.0652
     28 N         144.5922  138.7179  160.9998 N.3     1  UNL1       -0.3211
     29 H         145.0722  139.4595  161.5098 H       1  UNL1        0.1189
     30 H         144.8237  138.7821  160.0085 H       1  UNL1        0.1189
@<TRIPOS>BOND
     1     1     2    1
     2     2     3    1
     3     2     4   am
     4     4     5    2
     5     4     6   am
     6     6     7    1
     7     7     8    2
     8     8    11    1
     9    11    12   ar
    10    12    13   ar
    11    13    14    1
    12    13    15   ar
    13    15    16   ar
    14    16    17   ar
    15    17    18    1
    16     8     9    1
    17     9    10    1
    18    10    25    1
    19    25    26    1
    20    26    27    1
    21    27    28    1
    22    10    19    1
    23    19    20   ar
    24    20    21   ar
    25    21    22   ar
    26    22    23   ar
    27    23    24   ar
    28    10     6    1
    29    24    19   ar
    30    17    11   ar
    31    28    29    1
    32    28    30    1
@<TRIPOS>MOLECULE
*****
 30 32 0 0 0
SMALL
GASTEIGER

@<TRIPOS>ATOM
      1 C         139.3268  138.3887  160.4444 C.3     1  UNL1        0.1166
      2 N         139.6889  139.3065  161.5743 N.am    1  UNL1       -0.2592
      3 C         139.8429  140.7777  161.3256 C.3     1  UNL1        0.1166
      4 C         139.8971  138.7530  162.9529 C.2     1  UNL1        0.3264
      5 O         139.7431  137.2818  163.2016 O.2     1  UNL1       -0.2506
      6 N         140.2592  139.6708  164.0827 N.am    1  UNL1       -0.1644
      7 N         140.4973  139.2645  165.5069 N.2     1  UNL1       -0.1786
      8 C         140.8321  140.4986  166.2911 C.2     1  UNL1        0.0808
      9 C         140.8008  141.6675  165.3517 C.3     1  UNL1        0.0719
     10 C         140.4468  141.1559  163.9868 C.3     1  UNL1        0.1079
     11 C         141.1434  140.5540  167.7575 C.ar    1  UNL1        0.0448
     12 C         142.4720  141.0718  168.2231 C.ar    1  UNL1        0.0331
     13 C         142.7833  141.1272  169.6893 C.ar    1  UNL1        0.1403
     14 F         144.1118  141.6451  170.1550 F       1  UNL1       -0.2042
     15 C         141.7660  140.6647  170.6900 C.ar    1  UNL1        0.0319
     16 C         140.4375  140.1469  170.2244 C.ar    1  UNL1        0.0320
     17 C         140.1262  140.0915  168.7581 C.ar    1  UNL1        0.1414
     18 F         138.7976  139.5736  168.2925 F       1  UNL1       -0.2041
     19 C         140.5655  142.5971  163.5881 C.ar    1  UNL1       -0.0038
     20 C         141.7057  143.0442  162.7221 C.ar    1  UNL1       -0.0027
     21 C         141.8245  144.4853  162.3234 C.ar    1  UNL1       -0.0003
     22 C         140.8029  145.4794  162.7906 C.ar    1  UNL1       -0.0000
     23 C         139.6628  145.0323  163.6566 C.ar    1  UNL1       -0.0003
     24 C         139.5440  143.5911  164.0554 C.ar    1  UNL1       -0.0027
     25 C         140.1175  140.9456  162.5386 C.3     1  UNL1        0.0263
     26 C         139.0512  141.7730  161.8840 C.3     1  UNL1        0.0189
     27 C         137.6188  141.3313  161.9404 C.3     1  UNL1        0.0652
     28 N         136.8641  141.3970  163.2351 N.3     1  UNL1       -0.3211
     29 H         137.2717  140.7396  163.8999 H       1  UNL1        0.1189
     30 H         135.8871  141.1537  163.0718 H       1  UNL1        0.1189
@<TRIPOS>BOND
     1     1     2    1
     2     2     3    1
     3     2     4   am
     4     4     5    2
     5     4     6   am
     6     6     7    1
     7     7     8    2
     8     8    11    1
     9    11    12   ar
    10    12    13   ar
    11    13    14    1
    12    13    15   ar
    13    15    16   ar
    14    16    17   ar
    15    17    18    1
    16     8     9    1
    17     9    10    1
    18    10    25    1
    19    25    26    1
    20    26    27    1
    21    27    28    1
    22    10    19    1
    23    19    20   ar
    24    20    21   ar
    25    21    22   ar
    26    22    23   ar
    27    23    24   ar
    28    10     6    1
    29    24    19   ar
    30    17    11   ar
    31    28    29    1
    32    28    30    1
@<TRIPOS>MOLECULE
*****
 30 32 0 0 0
SMALL
GASTEIGER

@<TRIPOS>ATOM
      1 C         143.3519  139.6045  160.8179 C.3     1  UNL1        0.1166
      2 N         142.6431  140.2652  161.9629 N.am    1  UNL1       -0.2592
      3 C         141.4695  141.1622  161.7015 C.3     1  UNL1        0.1166
      4 C         143.1079  140.0290  163.3695 C.2     1  UNL1        0.3264
      5 O         144.2814  139.1321  163.6310 O.2     1  UNL1       -0.2506
      6 N         142.3991  140.6897  164.5145 N.am    1  UNL1       -0.1644
      7 N         142.7477  140.5489  165.9666 N.2     1  UNL1       -0.1786
      8 C         141.7813  141.3794  166.7580 C.2     1  UNL1        0.0808
      9 C         140.8355  142.0336  165.7950 C.3     1  UNL1        0.0719
     10 C         141.2173  141.6074  164.4084 C.3     1  UNL1        0.1079
     11 C         141.7639  141.5295  168.2504 C.ar    1  UNL1        0.0448
     12 C         142.6473  142.5449  168.9125 C.ar    1  UNL1        0.0331
     13 C         142.6299  142.6949  170.4048 C.ar    1  UNL1        0.1403
     14 F         143.5133  143.7104  171.0670 F       1  UNL1       -0.2042
     15 C         141.7290  141.8294  171.2351 C.ar    1  UNL1        0.0319
     16 C         140.8457  140.8139  170.5731 C.ar    1  UNL1        0.0320
     17 C         140.8631  140.6639  169.0807 C.ar    1  UNL1        0.1414
     18 F         139.9797  139.6484  168.4186 F       1  UNL1       -0.2041
     19 C         140.0649  142.4738  163.9944 C.ar    1  UNL1       -0.0038
     20 C         140.1251  143.9566  164.2126 C.ar    1  UNL1       -0.0027
     21 C         138.9727  144.8230  163.7985 C.ar    1  UNL1       -0.0003
     22 C         137.7602  144.2065  163.1664 C.ar    1  UNL1       -0.0000
     23 C         137.7000  142.7238  162.9482 C.ar    1  UNL1       -0.0003
     24 C         138.8524  141.8573  163.3622 C.ar    1  UNL1       -0.0027
     25 C         141.3582  141.3623  162.9353 C.3     1  UNL1        0.0263
     26 C         141.6344  142.5080  162.0075 C.3     1  UNL1        0.0189
     27 C         142.8591  143.3521  162.2018 C.3     1  UNL1        0.0652
     28 N         142.8103  144.8228  161.9108 N.3     1  UNL1       -0.3211
     29 H         142.6603  144.9670  160.9123 H       1  UNL1        0.1189
     30 H         143.6923  145.2537  162.1879 H       1  UNL1        0.1189
@<TRIPOS>BOND
     1     1     2    1
     2     2     3    1
     3     2     4   am
     4     4     5    2
     5     4     6   am
     6     6     7    1
     7     7     8    2
     8     8    11    1
     9    11    12   ar
    10    12    13   ar
    11    13    14    1
    12    13    15   ar
    13    15    16   ar
    14    16    17   ar
    15    17    18    1
    16     8     9    1
    17     9    10    1
    18    10    25    1
    19    25    26    1
    20    26    27    1
    21    27    28    1
    22    10    19    1
    23    19    20   ar
    24    20    21   ar
    25    21    22   ar
    26    22    23   ar
    27    23    24   ar
    28    10     6    1
    29    24    19   ar
    30    17    11   ar
    31    28    29    1
    32    28    30    1
@<TRIPOS>MOLECULE
*****
 30 32 0 0 0
SMALL
GASTEIGER

@<TRIPOS>ATOM
      1 C         140.8557  138.5683  159.5474 C.3     1  UNL1        0.1166
      2 N         140.7459  139.3674  160.8120 N.am    1  UNL1       -0.2592
      3 C         140.4854  140.8432  160.7465 C.3     1  UNL1        0.1166
      4 C         140.8964  138.6907  162.1422 C.2     1  UNL1        0.3264
      5 O         141.1568  137.2149  162.2078 O.2     1  UNL1       -0.2506
      6 N         140.7866  139.4898  163.4069 N.am    1  UNL1       -0.1644
      7 N         140.9140  138.9541  164.8022 N.2     1  UNL1       -0.1786
      8 C         140.7362  140.0981  165.7560 C.2     1  UNL1        0.0808
      9 C         140.4989  141.3408  164.9502 C.3     1  UNL1        0.0719
     10 C         140.5301  140.9649  163.4984 C.3     1  UNL1        0.1079
     11 C         140.7868  140.0140  167.2528 C.ar    1  UNL1        0.0448
     12 C         139.5522  140.2827  168.0612 C.ar    1  UNL1        0.0331
     13 C         139.6029  140.1986  169.5580 C.ar    1  UNL1        0.1403
     14 F         138.3682  140.4672  170.3665 F       1  UNL1       -0.2042
     15 C         140.8881  139.8460  170.2463 C.ar    1  UNL1        0.0319
     16 C         142.1227  139.5774  169.4379 C.ar    1  UNL1        0.0320
     17 C         142.0720  139.6614  167.9412 C.ar    1  UNL1        0.1414
     18 F         143.3067  139.3928  167.1326 F       1  UNL1       -0.2041
     19 C         140.2686  142.4252  163.2766 C.ar    1  UNL1       -0.0038
     20 C         141.2770  143.2659  162.5512 C.ar    1  UNL1       -0.0027
     21 C         141.0156  144.7262  162.3294 C.ar    1  UNL1       -0.0003
     22 C         139.7458  145.3457  162.8331 C.ar    1  UNL1       -0.0000
     23 C         138.7374  144.5050  163.5585 C.ar    1  UNL1       -0.0003
     24 C         138.9988  143.0447  163.7803 C.ar    1  UNL1       -0.0027
     25 C         140.5066  140.8942  162.0003 C.3     1  UNL1        0.0263
     26 C         139.2437  141.2085  161.2543 C.3     1  UNL1        0.0189
     27 C         137.9973  140.4184  161.5234 C.3     1  UNL1        0.0652
     28 N         136.9163  140.9945  162.3891 N.3     1  UNL1       -0.3211
     29 H         137.2629  141.0966  163.3430 H       1  UNL1        0.1189
     30 H         136.1092  140.3708  162.3855 H       1  UNL1        0.1189
@<TRIPOS>BOND
     1     1     2    1
     2     2     3    1
     3     2     4   am
     4     4     5    2
     5     4     6   am
     6     6     7    1
     7     7     8    2
     8     8    11    1
     9    11    12   ar
    10    12    13   ar
    11    13    14    1
    12    13    15   ar
    13    15    16   ar
    14    16    17   ar
    15    17    18    1
    16     8     9    1
    17     9    10    1
    18    10    25    1
    19    25    26    1
    20    26    27    1
    21    27    28    1
    22    10    19    1
    23    19    20   ar
    24    20    21   ar
    25    21    22   ar
    26    22    23   ar
    27    23    24   ar
    28    10     6    1
    29    24    19   ar
    30    17    11   ar
    31    28    29    1
    32    28    30    1
@<TRIPOS>MOLECULE
*****
 30 32 0 0 0
SMALL
GASTEIGER

@<TRIPOS>ATOM
      1 C         138.8044  138.1665  161.4201 C.3     1  UNL1        0.1166
      2 N         139.4015  139.1324  162.4002 N.am    1  UNL1       -0.2592
      3 C         140.0569  140.3895  161.9099 C.3     1  UNL1        0.1166
      4 C         139.3431  138.8414  163.8705 C.2     1  UNL1        0.3264
      5 O         138.6877  137.5844  164.3608 O.2     1  UNL1       -0.2506
      6 N         139.9402  139.8073  164.8505 N.am    1  UNL1       -0.1644
      7 N         139.9578  139.6520  166.3424 N.2     1  UNL1       -0.1786
      8 C         140.6530  140.8469  166.9247 C.2     1  UNL1        0.0808
      9 C         141.0651  141.7406  165.7927 C.3     1  UNL1        0.0719
     10 C         140.6246  141.0982  164.5108 C.3     1  UNL1        0.1079
     11 C         140.8938  141.1029  168.3829 C.ar    1  UNL1        0.0448
     12 C         140.0163  142.0624  169.1308 C.ar    1  UNL1        0.0331
     13 C         140.2572  142.3185  170.5890 C.ar    1  UNL1        0.1403
     14 F         139.3797  143.2780  171.3370 F       1  UNL1       -0.2042
     15 C         141.3755  141.6150  171.2993 C.ar    1  UNL1        0.0319
     16 C         142.2529  140.6555  170.5515 C.ar    1  UNL1        0.0320
     17 C         142.0121  140.3995  169.0933 C.ar    1  UNL1        0.1414
     18 F         142.8896  139.4399  168.3453 F       1  UNL1       -0.2041
     19 C         141.2439  142.3075  163.8753 C.ar    1  UNL1       -0.0038
     20 C         140.7406  143.6775  164.2216 C.ar    1  UNL1       -0.0027
     21 C         141.3599  144.8869  163.5861 C.ar    1  UNL1       -0.0003
     22 C         142.4826  144.7262  162.6044 C.ar    1  UNL1       -0.0000
     23 C         142.9859  143.3564  162.2581 C.ar    1  UNL1       -0.0003
     24 C         142.3666  142.1469  162.8936 C.ar    1  UNL1       -0.0027
     25 C         140.3135  140.7085  163.0961 C.3     1  UNL1        0.0263
     26 C         139.2801  141.4686  162.3188 C.3     1  UNL1        0.0189
     27 C         138.0849  142.0418  163.0210 C.3     1  UNL1        0.0652
     28 N         136.7807  141.3008  163.0083 N.3     1  UNL1       -0.3211
     29 H         136.4185  141.2663  162.0554 H       1  UNL1        0.1189
     30 H         136.1110  141.7810  163.6094 H       1  UNL1        0.1189
@<TRIPOS>BOND
     1     1     2    1
     2     2     3    1
     3     2     4   am
     4     4     5    2
     5     4     6   am
     6     6     7    1
     7     7     8    2
     8     8    11    1
     9    11    12   ar
    10    12    13   ar
    11    13    14    1
    12    13    15   ar
    13    15    16   ar
    14    16    17   ar
    15    17    18    1
    16     8     9    1
    17     9    10    1
    18    10    25    1
    19    25    26    1
    20    26    27    1
    21    27    28    1
    22    10    19    1
    23    19    20   ar
    24    20    21   ar
    25    21    22   ar
    26    22    23   ar
    27    23    24   ar
    28    10     6    1
    29    24    19   ar
    30    17    11   ar
    31    28    29    1
    32    28    30    1
