@<TRIPOS>MOLECULE
*****
 41 45 0 0 0
SMALL
GASTEIGER

@<TRIPOS>ATOM
      1 C         142.3086  138.1865  158.9549 C.ar    1  UNL1        0.1486
      2 N         142.8705  137.1951  157.9795 N.ar    1  UNL1       -0.2266
      3 C         141.8438  136.9631  156.9109 C.ar    1  UNL1        0.1010
      4 C         141.8437  136.0893  155.6917 C.ar    1  UNL1        0.0526
      5 C         140.6472  136.0634  154.7876 C.ar    1  UNL1        0.1690
      6 F         140.6471  135.1895  153.5683 F       1  UNL1       -0.2017
      7 C         139.4506  136.9114  155.1026 C.ar    1  UNL1        0.1689
      8 F         138.2540  136.8855  154.1983 F       1  UNL1       -0.2017
      9 C         139.4507  137.7852  156.3217 C.ar    1  UNL1        0.0507
     10 C         140.6472  137.8111  157.2259 C.ar    1  UNL1        0.0816
     11 N         140.9345  138.5671  158.4891 N.ar    1  UNL1       -0.3046
     12 C         144.3812  139.7448  162.6326 C.ar    1  UNL1        0.2275
     13 C         143.6035  138.4638  162.6960 C.ar    1  UNL1        0.0580
     14 C         142.9126  137.9443  161.4701 C.ar    1  UNL1        0.0125
     15 C         142.9995  138.7059  160.1808 C.ar    1  UNL1        0.0875
     16 C         143.7772  139.9869  160.1174 C.ar    1  UNL1        0.2303
     17 N         144.4681  140.5064  161.3433 N.ar    1  UNL1       -0.1766
     18 C         145.6682  141.6407  163.8571 C.3     1  UNL1        0.2542
     19 O         145.0721  140.2643  163.8586 O.3     1  UNL1       -0.4561
     20 O         143.8641  140.7486  158.8280 O.3     1  UNL1       -0.4560
     21 C         144.3656  142.1622  158.8243 C.3     1  UNL1        0.2542
     22 C         140.0100  139.5341  159.1675 C.3     1  UNL1        0.1628
     23 C         139.6157  140.8055  158.4763 C.3     1  UNL1        0.0297
     24 C         140.6593  141.8264  158.1311 C.3     1  UNL1        0.0024
     25 C         140.2650  143.0978  157.4398 C.3     1  UNL1        0.0001
     26 C         138.8271  143.3486  157.0937 C.3     1  UNL1        0.0000
     27 C         137.7837  142.3278  157.4389 C.3     1  UNL1        0.0001
     28 C         138.1779  141.0563  158.1301 C.3     1  UNL1        0.0024
     29 C         139.4798  139.2296  160.5373 C.2     1  UNL1        0.2431
     30 O         138.4077  138.3209  161.0614 O.2     1  UNL1       -0.2731
     31 N         140.0620  139.9169  161.7368 N.am    1  UNL1       -0.3044
     32 H         140.7921  140.5678  161.6251 H       1  UNL1        0.1494
     33 C         139.5317  139.6124  163.1064 C.3     1  UNL1        0.0716
     34 C         138.5934  140.5710  163.7776 C.3     1  UNL1        0.0199
     35 C         138.0630  140.2666  165.1473 C.3     1  UNL1        0.0072
     36 C         138.4711  139.0034  165.8459 C.3     1  UNL1        0.0367
     37 C         139.4095  138.0448  165.1747 C.3     1  UNL1        0.0072
     38 C         139.9398  138.3492  163.8050 C.3     1  UNL1        0.0199
     39 C         137.9408  138.6989  167.2156 C.2     1  UNL1        0.0500
     40 O         138.5201  139.3891  168.4147 O.co2   1  UNL1       -0.5492
     41 O         136.8311  137.7041  167.3861 O.co2   1  UNL1       -0.5492
@<TRIPOS>UNITY_ATOM_ATTR
40 1
charge -1
@<TRIPOS>BOND
     1    18    19    1
     2    19    12    1
     3    12    13   ar
     4    13    14   ar
     5    14    15   ar
     6    15     1    1
     7     1     2   ar
     8     2     3   ar
     9     3     4   ar
    10     4     5   ar
    11     5     6    1
    12     5     7   ar
    13     7     8    1
    14     7     9   ar
    15     9    10   ar
    16    10    11   ar
    17    11    22    1
    18    22    29    1
    19    29    30    2
    20    29    31   am
    21    33    31    1
    22    33    34    1
    23    34    35    1
    24    35    36    1
    25    36    39    1
    26    39    40   ar
    27    39    41   ar
    28    36    37    1
    29    37    38    1
    30    22    23    1
    31    23    24    1
    32    24    25    1
    33    25    26    1
    34    26    27    1
    35    27    28    1
    36    15    16   ar
    37    16    20    1
    38    20    21    1
    39    16    17   ar
    40    17    12   ar
    41    11     1   ar
    42    38    33    1
    43    28    23    1
    44    10     3   ar
    45    31    32    1
@<TRIPOS>MOLECULE
*****
 41 45 0 0 0
SMALL
GASTEIGER

@<TRIPOS>ATOM
      1 C         142.4664  139.4408  164.8175 C.ar    1  UNL1        0.1486
      2 N         142.8074  138.8083  166.1342 N.ar    1  UNL1       -0.2266
      3 C         142.5246  139.8083  167.2159 C.ar    1  UNL1        0.1010
      4 C         142.6701  139.7417  168.7073 C.ar    1  UNL1        0.0526
      5 C         142.2997  140.9256  169.5506 C.ar    1  UNL1        0.1690
      6 F         142.4453  140.8590  171.0421 F       1  UNL1       -0.2017
      7 C         141.7838  142.1761  168.9025 C.ar    1  UNL1        0.1689
      8 F         141.4135  143.3601  169.7458 F       1  UNL1       -0.2017
      9 C         141.6383  142.2427  167.4111 C.ar    1  UNL1        0.0507
     10 C         142.0087  141.0588  166.5678 C.ar    1  UNL1        0.0816
     11 N         141.9727  140.8317  165.0855 N.ar    1  UNL1       -0.3046
     12 C         142.8558  137.5055  160.7737 C.ar    1  UNL1        0.2275
     13 C         144.0725  138.0390  161.4701 C.ar    1  UNL1        0.0580
     14 C         143.9427  138.6841  162.8181 C.ar    1  UNL1        0.0125
     15 C         142.5962  138.7957  163.4696 C.ar    1  UNL1        0.0875
     16 C         141.3795  138.2622  162.7731 C.ar    1  UNL1        0.2303
     17 N         141.5093  137.6171  161.4252 N.ar    1  UNL1       -0.1766
     18 C         142.5371  137.5942  158.1967 C.3     1  UNL1        0.2542
     19 O         142.9856  136.8604  159.4257 O.3     1  UNL1       -0.4561
     20 O         140.0330  138.3738  163.4246 O.3     1  UNL1       -0.4560
     21 C         138.8011  137.9585  162.6764 C.3     1  UNL1        0.2542
     22 C         141.5222  141.8216  164.0526 C.3     1  UNL1        0.1628
     23 C         140.2696  142.6170  164.2720 C.3     1  UNL1        0.0297
     24 C         140.3537  144.0919  164.5328 C.3     1  UNL1        0.0024
     25 C         139.1011  144.8874  164.7523 C.3     1  UNL1        0.0001
     26 C         137.7643  144.2080  164.7110 C.3     1  UNL1        0.0000
     27 C         137.6803  142.7333  164.4503 C.3     1  UNL1        0.0001
     28 C         138.9328  141.9378  164.2308 C.3     1  UNL1        0.0024
     29 C         142.3243  142.0162  162.8000 C.2     1  UNL1        0.2431
     30 O         143.7406  142.4251  162.5226 O.2     1  UNL1       -0.2731
     31 N         141.6911  141.7839  161.4602 N.am    1  UNL1       -0.3044
     32 H         140.7491  141.5038  161.4029 H       1  UNL1        0.1494
     33 C         142.4933  141.9785  160.2078 C.3     1  UNL1        0.0716
     34 C         143.2962  140.8422  159.6474 C.3     1  UNL1        0.0199
     35 C         144.0985  141.0367  158.3948 C.3     1  UNL1        0.0072
     36 C         144.0977  142.3675  157.7028 C.3     1  UNL1        0.0367
     37 C         143.2947  143.5038  158.2633 C.3     1  UNL1        0.0072
     38 C         142.4925  143.3093  159.5157 C.3     1  UNL1        0.0199
     39 C         144.8999  142.5621  156.4504 C.2     1  UNL1        0.0500
     40 O         146.3814  142.3280  156.4646 O.co2   1  UNL1       -0.5492
     41 O         144.2205  142.9908  155.1837 O.co2   1  UNL1       -0.5492
@<TRIPOS>UNITY_ATOM_ATTR
40 1
charge -1
@<TRIPOS>BOND
     1    18    19    1
     2    19    12    1
     3    12    13   ar
     4    13    14   ar
     5    14    15   ar
     6    15     1    1
     7     1     2   ar
     8     2     3   ar
     9     3     4   ar
    10     4     5   ar
    11     5     6    1
    12     5     7   ar
    13     7     8    1
    14     7     9   ar
    15     9    10   ar
    16    10    11   ar
    17    11    22    1
    18    22    29    1
    19    29    30    2
    20    29    31   am
    21    33    31    1
    22    33    34    1
    23    34    35    1
    24    35    36    1
    25    36    39    1
    26    39    40   ar
    27    39    41   ar
    28    36    37    1
    29    37    38    1
    30    22    23    1
    31    23    24    1
    32    24    25    1
    33    25    26    1
    34    26    27    1
    35    27    28    1
    36    15    16   ar
    37    16    20    1
    38    20    21    1
    39    16    17   ar
    40    17    12   ar
    41    11     1   ar
    42    38    33    1
    43    28    23    1
    44    10     3   ar
    45    31    32    1
@<TRIPOS>MOLECULE
*****
 41 45 0 0 0
SMALL
GASTEIGER

@<TRIPOS>ATOM
      1 C         141.4752  144.0915  160.5458 C.ar    1  UNL1        0.1486
      2 N         141.3899  145.4070  159.8301 N.ar    1  UNL1       -0.2266
      3 C         140.6570  145.1862  158.5401 C.ar    1  UNL1        0.1010
      4 C         140.2770  146.1196  157.4291 C.ar    1  UNL1        0.0526
      5 C         139.5293  145.6011  156.2366 C.ar    1  UNL1        0.1690
      6 F         139.1493  146.5346  155.1256 F       1  UNL1       -0.2017
      7 C         139.1617  144.1491  156.1551 C.ar    1  UNL1        0.1689
      8 F         138.4140  143.6306  154.9625 F       1  UNL1       -0.2017
      9 C         139.5417  143.2157  157.2660 C.ar    1  UNL1        0.0507
     10 C         140.2894  143.7342  158.4585 C.ar    1  UNL1        0.0816
     11 N         140.7950  143.0577  159.6981 N.ar    1  UNL1       -0.3046
     12 C         143.4284  143.3729  164.5356 C.ar    1  UNL1        0.2275
     13 C         144.2012  143.1453  163.2703 C.ar    1  UNL1        0.0580
     14 C         143.5501  143.3848  161.9404 C.ar    1  UNL1        0.0125
     15 C         142.1262  143.8520  161.8758 C.ar    1  UNL1        0.0875
     16 C         141.3534  144.0796  163.1410 C.ar    1  UNL1        0.2303
     17 N         142.0045  143.8400  164.4709 N.ar    1  UNL1       -0.1766
     18 C         143.3339  142.4071  166.9456 C.3     1  UNL1        0.2542
     19 O         144.0795  143.1333  165.8655 O.3     1  UNL1       -0.4561
     20 O         139.9295  144.5467  163.0764 O.3     1  UNL1       -0.4560
     21 C         139.1490  144.7508  164.3410 C.3     1  UNL1        0.2542
     22 C         140.6466  141.6028  160.0315 C.3     1  UNL1        0.1628
     23 C         141.1908  140.5606  159.1002 C.3     1  UNL1        0.0297
     24 C         140.3228  139.4176  158.6640 C.3     1  UNL1        0.0024
     25 C         140.8670  138.3753  157.7327 C.3     1  UNL1        0.0001
     26 C         142.2793  138.4760  157.2374 C.3     1  UNL1        0.0000
     27 C         143.1473  139.6189  157.6735 C.3     1  UNL1        0.0001
     28 C         142.6031  140.6612  158.6049 C.3     1  UNL1        0.0024
     29 C         139.9538  141.1900  161.2964 C.2     1  UNL1        0.2431
     30 O         138.5603  141.3609  161.8247 O.2     1  UNL1       -0.2731
     31 N         140.7056  140.4328  162.3506 N.am    1  UNL1       -0.3044
     32 H         141.6538  140.2067  162.2123 H       1  UNL1        0.1494
     33 C         140.0128  140.0201  163.6153 C.3     1  UNL1        0.0716
     34 C         139.9213  140.9770  164.7668 C.3     1  UNL1        0.0199
     35 C         139.2284  140.5644  166.0317 C.3     1  UNL1        0.0072
     36 C         138.6271  139.1949  166.1450 C.3     1  UNL1        0.0367
     37 C         138.7187  138.2380  164.9934 C.3     1  UNL1        0.0072
     38 C         139.4115  138.6506  163.7286 C.3     1  UNL1        0.0199
     39 C         137.9343  138.7822  167.4097 C.2     1  UNL1        0.0500
     40 O         136.8446  137.7523  167.3663 O.co2   1  UNL1       -0.5492
     41 O         138.3313  139.3994  168.7180 O.co2   1  UNL1       -0.5492
@<TRIPOS>UNITY_ATOM_ATTR
40 1
charge -1
@<TRIPOS>BOND
     1    18    19    1
     2    19    12    1
     3    12    13   ar
     4    13    14   ar
     5    14    15   ar
     6    15     1    1
     7     1     2   ar
     8     2     3   ar
     9     3     4   ar
    10     4     5   ar
    11     5     6    1
    12     5     7   ar
    13     7     8    1
    14     7     9   ar
    15     9    10   ar
    16    10    11   ar
    17    11    22    1
    18    22    29    1
    19    29    30    2
    20    29    31   am
    21    33    31    1
    22    33    34    1
    23    34    35    1
    24    35    36    1
    25    36    39    1
    26    39    40   ar
    27    39    41   ar
    28    36    37    1
    29    37    38    1
    30    22    23    1
    31    23    24    1
    32    24    25    1
    33    25    26    1
    34    26    27    1
    35    27    28    1
    36    15    16   ar
    37    16    20    1
    38    20    21    1
    39    16    17   ar
    40    17    12   ar
    41    11     1   ar
    42    38    33    1
    43    28    23    1
    44    10     3   ar
    45    31    32    1
@<TRIPOS>MOLECULE
*****
 41 45 0 0 0
SMALL
GASTEIGER

@<TRIPOS>ATOM
      1 C         142.6054  142.6640  160.0478 C.ar    1  UNL1        0.1486
      2 N         143.8301  143.3129  159.4742 N.ar    1  UNL1       -0.2266
      3 C         144.3814  142.4066  158.4137 C.ar    1  UNL1        0.1010
      4 C         145.5741  142.5261  157.5120 C.ar    1  UNL1        0.0526
      5 C         145.8829  141.4365  156.5285 C.ar    1  UNL1        0.1690
      6 F         147.0756  141.5559  155.6267 F       1  UNL1       -0.2017
      7 C         144.9989  140.2274  156.4467 C.ar    1  UNL1        0.1689
      8 F         145.3078  139.1377  155.4631 F       1  UNL1       -0.2017
      9 C         143.8062  140.1079  157.3484 C.ar    1  UNL1        0.0507
     10 C         143.4975  141.1975  158.3319 C.ar    1  UNL1        0.0816
     11 N         142.3998  141.3566  159.3418 N.ar    1  UNL1       -0.3046
     12 C         140.0047  144.3443  163.3132 C.ar    1  UNL1        0.2275
     13 C         139.5969  144.4945  161.8776 C.ar    1  UNL1        0.0580
     14 C         140.4638  143.9344  160.7891 C.ar    1  UNL1        0.0125
     15 C         141.7385  143.2241  161.1363 C.ar    1  UNL1        0.0875
     16 C         142.1463  143.0738  162.5719 C.ar    1  UNL1        0.2303
     17 N         141.2794  143.6340  163.6604 N.ar    1  UNL1       -0.1766
     18 C         137.8048  144.2819  164.6939 C.3     1  UNL1        0.2542
     19 O         139.1378  144.9044  164.4017 O.3     1  UNL1       -0.4561
     20 O         143.4210  142.3635  162.9191 O.3     1  UNL1       -0.4560
     21 C         144.6679  143.1510  163.1928 C.3     1  UNL1        0.2542
     22 C         141.2913  140.3797  159.6003 C.3     1  UNL1        0.1628
     23 C         140.5618  139.7514  158.4502 C.3     1  UNL1        0.0297
     24 C         139.7556  140.6053  157.5169 C.3     1  UNL1        0.0024
     25 C         139.0261  139.9771  156.3667 C.3     1  UNL1        0.0001
     26 C         139.1028  138.4948  156.1496 C.3     1  UNL1        0.0000
     27 C         139.9089  137.6409  157.0828 C.3     1  UNL1        0.0001
     28 C         140.6385  138.2692  158.2331 C.3     1  UNL1        0.0024
     29 C         140.9122  140.0311  161.0092 C.2     1  UNL1        0.2431
     30 O         141.6869  139.6128  162.2237 O.2     1  UNL1       -0.2731
     31 N         139.4728  140.0689  161.4298 N.am    1  UNL1       -0.3044
     32 H         138.7769  140.3224  160.7812 H       1  UNL1        0.1494
     33 C         139.0938  139.7203  162.8386 C.3     1  UNL1        0.0716
     34 C         138.7214  140.8051  163.8053 C.3     1  UNL1        0.0199
     35 C         138.3423  140.4566  165.2142 C.3     1  UNL1        0.0072
     36 C         138.3358  139.0232  165.6564 C.3     1  UNL1        0.0367
     37 C         138.7082  137.9385  164.6896 C.3     1  UNL1        0.0072
     38 C         139.0872  138.2869  163.2808 C.3     1  UNL1        0.0199
     39 C         137.9567  138.6746  167.0652 C.2     1  UNL1        0.0500
     40 O         138.6487  139.3439  168.2156 O.co2   1  UNL1       -0.5492
     41 O         136.8857  137.6567  167.3237 O.co2   1  UNL1       -0.5492
@<TRIPOS>UNITY_ATOM_ATTR
40 1
charge -1
@<TRIPOS>BOND
     1    18    19    1
     2    19    12    1
     3    12    13   ar
     4    13    14   ar
     5    14    15   ar
     6    15     1    1
     7     1     2   ar
     8     2     3   ar
     9     3     4   ar
    10     4     5   ar
    11     5     6    1
    12     5     7   ar
    13     7     8    1
    14     7     9   ar
    15     9    10   ar
    16    10    11   ar
    17    11    22    1
    18    22    29    1
    19    29    30    2
    20    29    31   am
    21    33    31    1
    22    33    34    1
    23    34    35    1
    24    35    36    1
    25    36    39    1
    26    39    40   ar
    27    39    41   ar
    28    36    37    1
    29    37    38    1
    30    22    23    1
    31    23    24    1
    32    24    25    1
    33    25    26    1
    34    26    27    1
    35    27    28    1
    36    15    16   ar
    37    16    20    1
    38    20    21    1
    39    16    17   ar
    40    17    12   ar
    41    11     1   ar
    42    38    33    1
    43    28    23    1
    44    10     3   ar
    45    31    32    1
@<TRIPOS>MOLECULE
*****
 41 45 0 0 0
SMALL
GASTEIGER

@<TRIPOS>ATOM
      1 C         140.4734  138.6682  161.4601 C.ar    1  UNL1        0.1486
      2 N         139.6093  137.6858  162.1938 N.ar    1  UNL1       -0.2266
      3 C         139.3731  138.2182  163.5761 C.ar    1  UNL1        0.1010
      4 C         138.5969  137.6782  164.7406 C.ar    1  UNL1        0.0526
      5 C         138.5388  138.4497  166.0256 C.ar    1  UNL1        0.1690
      6 F         137.7626  137.9097  167.1901 F       1  UNL1       -0.2017
      7 C         139.2568  139.7611  166.1462 C.ar    1  UNL1        0.1689
      8 F         139.1986  140.5326  167.4314 F       1  UNL1       -0.2017
      9 C         140.0330  140.3011  164.9818 C.ar    1  UNL1        0.0507
     10 C         140.0911  139.5296  163.6968 C.ar    1  UNL1        0.0816
     11 N         140.7711  139.8077  162.3890 N.ar    1  UNL1       -0.3046
     12 C         141.9185  138.2672  157.2174 C.ar    1  UNL1        0.2275
     13 C         142.8748  138.0745  158.3568 C.ar    1  UNL1        0.0580
     14 C         142.3931  138.2081  159.7710 C.ar    1  UNL1        0.0125
     15 C         140.9551  138.5345  160.0459 C.ar    1  UNL1        0.0875
     16 C         139.9988  138.7272  158.9065 C.ar    1  UNL1        0.2303
     17 N         140.4805  138.5936  157.4922 N.ar    1  UNL1       -0.1766
     18 C         143.5305  137.2017  155.4807 C.3     1  UNL1        0.2542
     19 O         142.4002  138.1335  155.8031 O.3     1  UNL1       -0.4561
     20 O         138.5607  139.0536  159.1813 O.3     1  UNL1       -0.4560
     21 C         138.1434  140.4777  159.4002 C.3     1  UNL1        0.2542
     22 C         141.6029  141.0137  162.0667 C.3     1  UNL1        0.1628
     23 C         142.9657  141.1688  162.6736 C.3     1  UNL1        0.0297
     24 C         143.5876  142.5295  162.7831 C.3     1  UNL1        0.0024
     25 C         144.9505  142.6847  163.3900 C.3     1  UNL1        0.0001
     26 C         145.6917  141.4792  163.8874 C.3     1  UNL1        0.0000
     27 C         145.0699  140.1186  163.7779 C.3     1  UNL1        0.0001
     28 C         143.7070  139.9633  163.1710 C.3     1  UNL1        0.0024
     29 C         141.0717  142.0646  161.1374 C.2     1  UNL1        0.2431
     30 O         139.9700  143.0783  161.2315 O.2     1  UNL1       -0.2731
     31 N         141.6881  142.2485  159.7824 N.am    1  UNL1       -0.3044
     32 H         142.4413  141.6795  159.5029 H       1  UNL1        0.1494
     33 C         141.1569  143.2994  158.8532 C.3     1  UNL1        0.0716
     34 C         140.1195  142.9413  157.8306 C.3     1  UNL1        0.0199
     35 C         139.5882  143.9922  156.9014 C.3     1  UNL1        0.0072
     36 C         140.0943  145.4011  156.9947 C.3     1  UNL1        0.0367
     37 C         141.1316  145.7592  158.0173 C.3     1  UNL1        0.0072
     38 C         141.6629  144.7084  158.9466 C.3     1  UNL1        0.0199
     39 C         139.5630  146.4520  156.0656 C.2     1  UNL1        0.0500
     40 O         138.9370  147.6969  156.6207 O.co2   1  UNL1       -0.5492
     41 O         139.6579  146.2579  154.5812 O.co2   1  UNL1       -0.5492
@<TRIPOS>UNITY_ATOM_ATTR
40 1
charge -1
@<TRIPOS>BOND
     1    18    19    1
     2    19    12    1
     3    12    13   ar
     4    13    14   ar
     5    14    15   ar
     6    15     1    1
     7     1     2   ar
     8     2     3   ar
     9     3     4   ar
    10     4     5   ar
    11     5     6    1
    12     5     7   ar
    13     7     8    1
    14     7     9   ar
    15     9    10   ar
    16    10    11   ar
    17    11    22    1
    18    22    29    1
    19    29    30    2
    20    29    31   am
    21    33    31    1
    22    33    34    1
    23    34    35    1
    24    35    36    1
    25    36    39    1
    26    39    40   ar
    27    39    41   ar
    28    36    37    1
    29    37    38    1
    30    22    23    1
    31    23    24    1
    32    24    25    1
    33    25    26    1
    34    26    27    1
    35    27    28    1
    36    15    16   ar
    37    16    20    1
    38    20    21    1
    39    16    17   ar
    40    17    12   ar
    41    11     1   ar
    42    38    33    1
    43    28    23    1
    44    10     3   ar
    45    31    32    1
@<TRIPOS>MOLECULE
*****
 41 45 0 0 0
SMALL
GASTEIGER

@<TRIPOS>ATOM
      1 C         142.8860  139.1744  159.7593 C.ar    1  UNL1        0.1486
      2 N         143.5230  138.2037  158.8097 N.ar    1  UNL1       -0.2266
      3 C         142.4604  137.7022  157.8772 C.ar    1  UNL1        0.1010
      4 C         142.5038  136.7293  156.7364 C.ar    1  UNL1        0.0526
      5 C         141.2534  136.4172  155.9690 C.ar    1  UNL1        0.1690
      6 F         141.2967  135.4442  154.8281 F       1  UNL1       -0.2017
      7 C         139.9596  137.0781  156.3423 C.ar    1  UNL1        0.1689
      8 F         138.7091  136.7659  155.5748 F       1  UNL1       -0.2017
      9 C         139.9163  138.0510  157.4831 C.ar    1  UNL1        0.0507
     10 C         141.1667  138.3631  158.2505 C.ar    1  UNL1        0.0816
     11 N         141.4297  139.2730  159.4137 N.ar    1  UNL1       -0.3046
     12 C         144.9768  141.4003  163.0645 C.ar    1  UNL1        0.2275
     13 C         144.6149  139.9558  163.2450 C.ar    1  UNL1        0.0580
     14 C         143.9180  139.2139  162.1433 C.ar    1  UNL1        0.0125
     15 C         143.5829  139.9164  160.8610 C.ar    1  UNL1        0.0875
     16 C         143.9448  141.3608  160.6805 C.ar    1  UNL1        0.2303
     17 N         144.6417  142.1027  161.7823 N.ar    1  UNL1       -0.1766
     18 C         144.8952  143.0595  165.0621 C.3     1  UNL1        0.2542
     19 O         145.6737  142.1422  164.1662 O.3     1  UNL1       -0.4561
     20 O         143.6097  142.0634  159.3982 O.3     1  UNL1       -0.4560
     21 C         144.6696  142.2698  158.3570 C.3     1  UNL1        0.2542
     22 C         140.4146  140.1308  160.1092 C.3     1  UNL1        0.1628
     23 C         139.8128  139.6783  161.4065 C.3     1  UNL1        0.0297
     24 C         139.2645  138.2879  161.5345 C.3     1  UNL1        0.0024
     25 C         138.6627  137.8354  162.8318 C.3     1  UNL1        0.0001
     26 C         138.6092  138.7733  164.0013 C.3     1  UNL1        0.0000
     27 C         139.1574  140.1636  163.8733 C.3     1  UNL1        0.0001
     28 C         139.7592  140.6162  162.5760 C.3     1  UNL1        0.0024
     29 C         140.0012  141.4411  159.5074 C.2     1  UNL1        0.2431
     30 O         138.8437  142.3696  159.7266 O.2     1  UNL1       -0.2731
     31 N         140.8425  142.0744  158.4391 N.am    1  UNL1       -0.3044
     32 H         141.6659  141.6301  158.1329 H       1  UNL1        0.1494
     33 C         140.4291  143.3847  157.8373 C.3     1  UNL1        0.0716
     34 C         140.8587  144.6721  158.4760 C.3     1  UNL1        0.0199
     35 C         140.4453  145.9825  157.8742 C.3     1  UNL1        0.0072
     36 C         139.6023  146.0055  156.6338 C.3     1  UNL1        0.0367
     37 C         139.1727  144.7180  155.9951 C.3     1  UNL1        0.0072
     38 C         139.5861  143.4076  156.5968 C.3     1  UNL1        0.0199
     39 C         139.1889  147.3157  156.0320 C.2     1  UNL1        0.0500
     40 O         139.3296  147.5407  154.5556 O.co2   1  UNL1       -0.5492
     41 O         138.6348  148.4011  156.9066 O.co2   1  UNL1       -0.5492
@<TRIPOS>UNITY_ATOM_ATTR
40 1
charge -1
@<TRIPOS>BOND
     1    18    19    1
     2    19    12    1
     3    12    13   ar
     4    13    14   ar
     5    14    15   ar
     6    15     1    1
     7     1     2   ar
     8     2     3   ar
     9     3     4   ar
    10     4     5   ar
    11     5     6    1
    12     5     7   ar
    13     7     8    1
    14     7     9   ar
    15     9    10   ar
    16    10    11   ar
    17    11    22    1
    18    22    29    1
    19    29    30    2
    20    29    31   am
    21    33    31    1
    22    33    34    1
    23    34    35    1
    24    35    36    1
    25    36    39    1
    26    39    40   ar
    27    39    41   ar
    28    36    37    1
    29    37    38    1
    30    22    23    1
    31    23    24    1
    32    24    25    1
    33    25    26    1
    34    26    27    1
    35    27    28    1
    36    15    16   ar
    37    16    20    1
    38    20    21    1
    39    16    17   ar
    40    17    12   ar
    41    11     1   ar
    42    38    33    1
    43    28    23    1
    44    10     3   ar
    45    31    32    1
@<TRIPOS>MOLECULE
*****
 41 45 0 0 0
SMALL
GASTEIGER

@<TRIPOS>ATOM
      1 C         142.6192  139.8540  159.1256 C.ar    1  UNL1        0.1486
      2 N         143.6099  139.0210  158.3676 N.ar    1  UNL1       -0.2266
      3 C         142.8468  138.1245  157.4381 C.ar    1  UNL1        0.1010
      4 C         143.2947  137.0902  156.4483 C.ar    1  UNL1        0.0526
      5 C         142.2801  136.3349  155.6420 C.ar    1  UNL1        0.1690
      6 F         142.7279  135.3006  154.6522 F       1  UNL1       -0.2017
      7 C         140.8177  136.6138  155.8256 C.ar    1  UNL1        0.1689
      8 F         139.8032  135.8584  155.0193 F       1  UNL1       -0.2017
      9 C         140.3699  137.6480  156.8154 C.ar    1  UNL1        0.0507
     10 C         141.3845  138.4034  157.6216 C.ar    1  UNL1        0.0816
     11 N         141.2438  139.4723  158.6645 N.ar    1  UNL1       -0.3046
     12 C         143.6008  142.9538  162.2365 C.ar    1  UNL1        0.2275
     13 C         142.8630  143.3481  160.9915 C.ar    1  UNL1        0.0580
     14 C         142.5358  142.3149  159.9545 C.ar    1  UNL1        0.0125
     15 C         142.9464  140.8873  160.1625 C.ar    1  UNL1        0.0875
     16 C         143.6842  140.4930  161.4076 C.ar    1  UNL1        0.2303
     17 N         144.0114  141.5262  162.4445 N.ar    1  UNL1       -0.1766
     18 C         144.2770  143.5642  164.6696 C.3     1  UNL1        0.2542
     19 O         143.9280  143.9871  163.2734 O.3     1  UNL1       -0.4561
     20 O         144.0948  139.0653  161.6157 O.3     1  UNL1       -0.4560
     21 C         143.1210  138.0813  162.1930 C.3     1  UNL1        0.2542
     22 C         139.9541  140.0568  159.1595 C.3     1  UNL1        0.1628
     23 C         139.1868  141.0168  158.2996 C.3     1  UNL1        0.0297
     24 C         137.8313  140.6395  157.7796 C.3     1  UNL1        0.0024
     25 C         137.0639  141.5994  156.9197 C.3     1  UNL1        0.0001
     26 C         137.6520  142.9368  156.5796 C.3     1  UNL1        0.0000
     27 C         139.0075  143.3141  157.0995 C.3     1  UNL1        0.0001
     28 C         139.7749  142.3541  157.9595 C.3     1  UNL1        0.0024
     29 C         139.4317  139.6813  160.5146 C.2     1  UNL1        0.2431
     30 O         138.3214  138.7940  160.9942 O.2     1  UNL1       -0.2731
     31 N         140.0703  140.2478  161.7480 N.am    1  UNL1       -0.3044
     32 H         140.8323  140.8660  161.6682 H       1  UNL1        0.1494
     33 C         139.5478  139.8723  163.1030 C.3     1  UNL1        0.0716
     34 C         138.6688  140.8247  163.8582 C.3     1  UNL1        0.0199
     35 C         138.1463  140.4492  165.2133 C.3     1  UNL1        0.0072
     36 C         138.5028  139.1213  165.8131 C.3     1  UNL1        0.0367
     37 C         139.3818  138.1690  165.0578 C.3     1  UNL1        0.0072
     38 C         139.9043  138.5444  163.7028 C.3     1  UNL1        0.0199
     39 C         137.9803  138.7458  167.1680 C.2     1  UNL1        0.0500
     40 O         136.8963  137.7170  167.2952 O.co2   1  UNL1       -0.5492
     41 O         138.5420  139.3992  168.3959 O.co2   1  UNL1       -0.5492
@<TRIPOS>UNITY_ATOM_ATTR
40 1
charge -1
@<TRIPOS>BOND
     1    18    19    1
     2    19    12    1
     3    12    13   ar
     4    13    14   ar
     5    14    15   ar
     6    15     1    1
     7     1     2   ar
     8     2     3   ar
     9     3     4   ar
    10     4     5   ar
    11     5     6    1
    12     5     7   ar
    13     7     8    1
    14     7     9   ar
    15     9    10   ar
    16    10    11   ar
    17    11    22    1
    18    22    29    1
    19    29    30    2
    20    29    31   am
    21    33    31    1
    22    33    34    1
    23    34    35    1
    24    35    36    1
    25    36    39    1
    26    39    40   ar
    27    39    41   ar
    28    36    37    1
    29    37    38    1
    30    22    23    1
    31    23    24    1
    32    24    25    1
    33    25    26    1
    34    26    27    1
    35    27    28    1
    36    15    16   ar
    37    16    20    1
    38    20    21    1
    39    16    17   ar
    40    17    12   ar
    41    11     1   ar
    42    38    33    1
    43    28    23    1
    44    10     3   ar
    45    31    32    1
@<TRIPOS>MOLECULE
*****
 41 45 0 0 0
SMALL
GASTEIGER

@<TRIPOS>ATOM
      1 C         142.5973  139.8067  163.8763 C.ar    1  UNL1        0.1486
      2 N         143.3372  139.2230  165.0433 N.ar    1  UNL1       -0.2266
      3 C         142.5213  139.4664  166.2782 C.ar    1  UNL1        0.1010
      4 C         142.7506  139.1144  167.7182 C.ar    1  UNL1        0.0526
      5 C         141.7356  139.4965  168.7544 C.ar    1  UNL1        0.1690
      6 F         141.9648  139.1445  170.1944 F       1  UNL1       -0.2017
      7 C         140.4914  140.2307  168.3507 C.ar    1  UNL1        0.1689
      8 F         139.4764  140.6128  169.3870 F       1  UNL1       -0.2017
      9 C         140.2622  140.5827  166.9107 C.ar    1  UNL1        0.0507
     10 C         141.2771  140.2005  165.8745 C.ar    1  UNL1        0.0816
     11 N         141.3241  140.4108  164.3901 N.ar    1  UNL1       -0.3046
     12 C         143.9582  139.7545  159.5874 C.ar    1  UNL1        0.2275
     13 C         143.5157  138.4833  160.2493 C.ar    1  UNL1        0.0580
     14 C         143.0620  138.5007  161.6790 C.ar    1  UNL1        0.0125
     15 C         143.0509  139.7893  162.4467 C.ar    1  UNL1        0.0875
     16 C         143.4934  141.0604  161.7847 C.ar    1  UNL1        0.2303
     17 N         143.9471  141.0430  160.3550 N.ar    1  UNL1       -0.1766
     18 C         144.6624  141.0271  157.4346 C.3     1  UNL1        0.2542
     19 O         144.4118  139.7371  158.1577 O.3     1  UNL1       -0.4561
     20 O         143.4823  142.3491  162.5524 O.3     1  UNL1       -0.4560
     21 C         144.7142  142.7991  163.2803 C.3     1  UNL1        0.2542
     22 C         140.2809  141.1037  163.5643 C.3     1  UNL1        0.1628
     23 C         139.6101  142.3395  164.0862 C.3     1  UNL1        0.0297
     24 C         138.1153  142.3900  164.2010 C.3     1  UNL1        0.0024
     25 C         137.4444  143.6259  164.7229 C.3     1  UNL1        0.0001
     26 C         138.2684  144.8114  165.1301 C.3     1  UNL1        0.0000
     27 C         139.7631  144.7610  165.0154 C.3     1  UNL1        0.0001
     28 C         140.4340  143.5251  164.4935 C.3     1  UNL1        0.0024
     29 C         139.9086  140.5605  162.2165 C.2     1  UNL1        0.2431
     30 O         139.4052  139.2337  161.7305 O.2     1  UNL1       -0.2731
     31 N         140.0170  141.4322  161.0006 N.am    1  UNL1       -0.3044
     32 H         140.3325  142.3607  161.0871 H       1  UNL1        0.1494
     33 C         139.6446  140.8890  159.6529 C.3     1  UNL1        0.0716
     34 C         140.6162  140.0343  158.8943 C.3     1  UNL1        0.0199
     35 C         140.2439  139.4910  157.5465 C.3     1  UNL1        0.0072
     36 C         138.9001  139.8026  156.9574 C.3     1  UNL1        0.0367
     37 C         137.9285  140.6573  157.7161 C.3     1  UNL1        0.0072
     38 C         138.3008  141.2005  159.0638 C.3     1  UNL1        0.0199
     39 C         138.5277  139.2594  155.6098 C.2     1  UNL1        0.0500
     40 O         138.3928  140.1867  154.4385 O.co2   1  UNL1       -0.5492
     41 O         138.2903  137.7888  155.4334 O.co2   1  UNL1       -0.5492
@<TRIPOS>UNITY_ATOM_ATTR
40 1
charge -1
@<TRIPOS>BOND
     1    18    19    1
     2    19    12    1
     3    12    13   ar
     4    13    14   ar
     5    14    15   ar
     6    15     1    1
     7     1     2   ar
     8     2     3   ar
     9     3     4   ar
    10     4     5   ar
    11     5     6    1
    12     5     7   ar
    13     7     8    1
    14     7     9   ar
    15     9    10   ar
    16    10    11   ar
    17    11    22    1
    18    22    29    1
    19    29    30    2
    20    29    31   am
    21    33    31    1
    22    33    34    1
    23    34    35    1
    24    35    36    1
    25    36    39    1
    26    39    40   ar
    27    39    41   ar
    28    36    37    1
    29    37    38    1
    30    22    23    1
    31    23    24    1
    32    24    25    1
    33    25    26    1
    34    26    27    1
    35    27    28    1
    36    15    16   ar
    37    16    20    1
    38    20    21    1
    39    16    17   ar
    40    17    12   ar
    41    11     1   ar
    42    38    33    1
    43    28    23    1
    44    10     3   ar
    45    31    32    1
@<TRIPOS>MOLECULE
*****
 41 45 0 0 0
SMALL
GASTEIGER

@<TRIPOS>ATOM
      1 C         139.8880  139.2805  158.0014 C.ar    1  UNL1        0.1486
      2 N         139.0725  138.4072  157.0947 N.ar    1  UNL1       -0.2266
      3 C         140.0127  137.5073  156.3489 C.ar    1  UNL1        0.1010
      4 C         139.7775  136.4401  155.3214 C.ar    1  UNL1        0.0526
      5 C         140.9390  135.6900  154.7398 C.ar    1  UNL1        0.1690
      6 F         140.7038  134.6228  153.7123 F       1  UNL1       -0.2017
      7 C         142.3356  136.0072  155.1855 C.ar    1  UNL1        0.1689
      8 F         143.4971  135.2571  154.6038 F       1  UNL1       -0.2017
      9 C         142.5708  137.0745  156.2130 C.ar    1  UNL1        0.0507
     10 C         141.4093  137.8245  156.7946 C.ar    1  UNL1        0.0816
     11 N         141.3323  138.9204  157.8160 N.ar    1  UNL1       -0.3046
     12 C         138.2836  142.4282  160.7886 C.ar    1  UNL1        0.2275
     13 C         138.8066  142.8184  159.4380 C.ar    1  UNL1        0.0580
     14 C         139.3414  141.7692  158.5089 C.ar    1  UNL1        0.0125
     15 C         139.3532  140.3297  158.9305 C.ar    1  UNL1        0.0875
     16 C         138.8302  139.9395  160.2811 C.ar    1  UNL1        0.2303
     17 N         138.2954  140.9887  161.2101 N.ar    1  UNL1       -0.1766
     18 C         137.7254  143.2281  163.1965 C.3     1  UNL1        0.2542
     19 O         137.7488  143.4774  161.7176 O.3     1  UNL1       -0.4561
     20 O         138.8420  138.4999  160.7027 O.3     1  UNL1       -0.4560
     21 C         138.1858  138.0893  161.9875 C.3     1  UNL1        0.2542
     22 C         142.4953  139.5463  158.5270 C.3     1  UNL1        0.1628
     23 C         143.3151  140.5990  157.8418 C.3     1  UNL1        0.0297
     24 C         142.7380  141.3671  156.6897 C.3     1  UNL1        0.0024
     25 C         143.5577  142.4199  156.0044 C.3     1  UNL1        0.0001
     26 C         144.9545  142.7047  156.4712 C.3     1  UNL1        0.0000
     27 C         145.5316  141.9367  157.6232 C.3     1  UNL1        0.0001
     28 C         144.7119  140.8839  158.3085 C.3     1  UNL1        0.0024
     29 C         142.8387  139.1193  159.9234 C.2     1  UNL1        0.2431
     30 O         143.5882  137.9563  160.5030 O.2     1  UNL1       -0.2731
     31 N         142.3952  139.9489  161.0918 N.am    1  UNL1       -0.3044
     32 H         141.8788  140.7736  160.9422 H       1  UNL1        0.1494
     33 C         142.7386  139.5219  162.4881 C.3     1  UNL1        0.0716
     34 C         144.0650  139.8942  163.0814 C.3     1  UNL1        0.0199
     35 C         144.4085  139.4672  164.4778 C.3     1  UNL1        0.0072
     36 C         143.4255  138.6680  165.2808 C.3     1  UNL1        0.0367
     37 C         142.0991  138.2957  164.6875 C.3     1  UNL1        0.0072
     38 C         141.7556  138.7226  163.2912 C.3     1  UNL1        0.0199
     39 C         143.7689  138.2410  166.6771 C.2     1  UNL1        0.0500
     40 O         143.0958  138.8937  167.8480 O.co2   1  UNL1       -0.5492
     41 O         144.7854  137.1612  166.9026 O.co2   1  UNL1       -0.5492
@<TRIPOS>UNITY_ATOM_ATTR
40 1
charge -1
@<TRIPOS>BOND
     1    18    19    1
     2    19    12    1
     3    12    13   ar
     4    13    14   ar
     5    14    15   ar
     6    15     1    1
     7     1     2   ar
     8     2     3   ar
     9     3     4   ar
    10     4     5   ar
    11     5     6    1
    12     5     7   ar
    13     7     8    1
    14     7     9   ar
    15     9    10   ar
    16    10    11   ar
    17    11    22    1
    18    22    29    1
    19    29    30    2
    20    29    31   am
    21    33    31    1
    22    33    34    1
    23    34    35    1
    24    35    36    1
    25    36    39    1
    26    39    40   ar
    27    39    41   ar
    28    36    37    1
    29    37    38    1
    30    22    23    1
    31    23    24    1
    32    24    25    1
    33    25    26    1
    34    26    27    1
    35    27    28    1
    36    15    16   ar
    37    16    20    1
    38    20    21    1
    39    16    17   ar
    40    17    12   ar
    41    11     1   ar
    42    38    33    1
    43    28    23    1
    44    10     3   ar
    45    31    32    1
