@<TRIPOS>MOLECULE
*****
 38 42 0 0 0
SMALL
GASTEIGER

@<TRIPOS>ATOM
      1 N         141.9112  141.6669  161.5987 N.am    1  UNL1       -0.2986
      2 C         140.9632  140.6608  161.0163 C.2     1  UNL1        0.2227
      3 O         139.4935  140.7644  161.2979 O.2     1  UNL1       -0.2751
      4 H         142.8758  141.5989  161.4138 H       1  UNL1        0.1500
      5 C         141.4848  139.5512  160.1522 C.3     1  UNL1        0.0806
      6 C         141.1923  139.5455  158.6811 C.3     1  UNL1        0.0108
      7 C         141.7139  138.4358  157.8169 C.3     1  UNL1        0.0165
      8 C         142.5281  137.3319  158.4240 C.3     1  UNL1        0.0580
      9 C         142.8206  137.3377  159.8953 C.3     1  UNL1        0.0208
     10 C         142.2990  138.4473  160.7593 C.3     1  UNL1        0.0323
     11 C         142.5915  138.4531  162.2305 C.ar    1  UNL1       -0.0220
     12 C         143.8642  139.0622  162.7397 C.ar    1  UNL1       -0.0038
     13 C         144.1567  139.0679  164.2110 C.ar    1  UNL1        0.0064
     14 C         143.1766  138.4645  165.1729 C.ar    1  UNL1        0.0345
     15 BR        143.4691  138.4702  166.6441 Br      1  UNL1       -0.0490
     16 C         141.9039  137.8554  164.6636 C.ar    1  UNL1        0.0064
     17 C         141.6114  137.8497  163.1925 C.ar    1  UNL1       -0.0038
     18 N         143.0498  136.2223  157.5600 N.3     1  UNL1       -0.2697
     19 C         143.3506  134.8816  158.1615 C.3     1  UNL1        0.1046
     20 C         143.8723  133.7719  157.2974 C.3     1  UNL1        0.1595
     21 O         144.0931  134.0030  155.8319 O.3     1  UNL1       -0.3508
     22 C         143.7922  135.3439  155.2304 C.3     1  UNL1        0.1595
     23 C         143.2706  136.4535  156.0945 C.3     1  UNL1        0.1046
     24 C         141.3896  142.7765  162.4627 C.3     1  UNL1        0.1170
     25 C         140.3254  145.5837  158.2216 C.3     1  UNL1        0.0521
     26 C         140.2966  145.4206  159.7124 C.ar    1  UNL1        0.0591
     27 C         140.8574  144.1801  160.3422 C.ar    1  UNL1        0.0124
     28 C         140.8287  144.0170  161.8330 C.ar    1  UNL1        0.0024
     29 C         140.2391  145.0944  162.6941 C.ar    1  UNL1        0.0183
     30 C         139.6783  146.3349  162.0644 C.ar    1  UNL1        0.0982
     31 N         139.7070  146.4980  160.5736 N.ar    1  UNL1       -0.2482
     32 C         141.4288  142.6456  163.9565 C.ar    1  UNL1       -0.0003
     33 C         142.7468  142.6050  164.6715 C.ar    1  UNL1       -0.0015
     34 C         142.7860  142.4741  166.1652 C.ar    1  UNL1        0.0111
     35 C         141.5072  142.3838  166.9440 C.ar    1  UNL1        0.0577
     36 CL        141.5464  142.2529  168.4378 Cl      1  UNL1       -0.0822
     37 C         140.1892  142.4244  166.2290 C.ar    1  UNL1        0.0111
     38 C         140.1500  142.5553  164.7353 C.ar    1  UNL1       -0.0015
@<TRIPOS>BOND
     1    25    26    1
     2    26    27   ar
     3    27    28   ar
     4    28    24    1
     5    24     1    1
     6     1     2   am
     7     2     3    2
     8     5     2    1
     9     5     6    1
    10     6     7    1
    11     7     8    1
    12     8    18    1
    13    18    19    1
    14    19    20    1
    15    20    21    1
    16    21    22    1
    17    22    23    1
    18     8     9    1
    19     9    10    1
    20    10    11    1
    21    11    12   ar
    22    12    13   ar
    23    13    14   ar
    24    14    15    1
    25    14    16   ar
    26    16    17   ar
    27    24    32    1
    28    32    33   ar
    29    33    34   ar
    30    34    35   ar
    31    35    36    1
    32    35    37   ar
    33    37    38   ar
    34    28    29   ar
    35    29    30   ar
    36    30    31   ar
    37    31    26   ar
    38    10     5    1
    39    17    11   ar
    40    38    32   ar
    41    23    18    1
    42     1     4    1
@<TRIPOS>MOLECULE
*****
 38 42 0 0 0
SMALL
GASTEIGER

@<TRIPOS>ATOM
      1 N         140.3007  140.6602  162.4291 N.am    1  UNL1       -0.2986
      2 C         139.7494  139.8393  161.3011 C.2     1  UNL1        0.2227
      3 O         139.7049  138.3441  161.4136 O.2     1  UNL1       -0.2751
      4 H         140.3299  141.6415  162.3552 H       1  UNL1        0.1500
      5 C         139.2428  140.5135  160.0606 C.3     1  UNL1        0.0806
      6 C         139.2752  139.7898  158.7472 C.3     1  UNL1        0.0108
      7 C         138.7686  140.4640  157.5067 C.3     1  UNL1        0.0165
      8 C         138.2294  141.8618  157.5797 C.3     1  UNL1        0.0580
      9 C         138.1969  142.5855  158.8933 C.3     1  UNL1        0.0208
     10 C         138.7036  141.9113  160.1337 C.3     1  UNL1        0.0323
     11 C         138.6711  142.6349  161.4471 C.ar    1  UNL1       -0.0220
     12 C         139.6711  143.7159  161.7329 C.ar    1  UNL1       -0.0038
     13 C         139.6385  144.4395  163.0464 C.ar    1  UNL1        0.0064
     14 C         138.6061  144.0823  164.0742 C.ar    1  UNL1        0.0345
     15 BR        138.5735  144.8059  165.3877 Br      1  UNL1       -0.0490
     16 C         137.6061  143.0013  163.7884 C.ar    1  UNL1        0.0064
     17 C         137.6386  142.2777  162.4750 C.ar    1  UNL1       -0.0038
     18 N         137.7227  142.5360  156.3393 N.3     1  UNL1       -0.2697
     19 C         138.2296  143.8973  155.9652 C.3     1  UNL1        0.1046
     20 C         137.7229  144.5716  154.7248 C.3     1  UNL1        0.1595
     21 O         136.7093  143.8845  153.8584 O.3     1  UNL1       -0.3508
     22 C         136.2025  142.5231  154.2325 C.3     1  UNL1        0.1595
     23 C         136.7091  141.8489  155.4729 C.3     1  UNL1        0.1046
     24 C         140.8073  139.9860  163.6695 C.3     1  UNL1        0.1170
     25 C         145.6099  141.8331  162.9457 C.3     1  UNL1        0.0521
     26 C         144.6835  140.8321  163.5700 C.ar    1  UNL1        0.0591
     27 C         143.2087  140.9095  163.3076 C.ar    1  UNL1        0.0124
     28 C         142.2822  139.9085  163.9319 C.ar    1  UNL1        0.0024
     29 C         142.8306  138.8301  164.8186 C.ar    1  UNL1        0.0183
     30 C         144.3054  138.7527  165.0810 C.ar    1  UNL1        0.0982
     31 N         145.2318  139.7537  164.4567 N.ar    1  UNL1       -0.2482
     32 C         139.8392  139.3892  164.6475 C.ar    1  UNL1       -0.0003
     33 C         139.4817  137.9352  164.5567 C.ar    1  UNL1       -0.0015
     34 C         138.5135  137.3385  165.5348 C.ar    1  UNL1        0.0111
     35 C         137.9029  138.1957  166.6037 C.ar    1  UNL1        0.0577
     36 CL        136.9348  137.5989  167.5817 Cl      1  UNL1       -0.0822
     37 C         138.2605  139.6496  166.6944 C.ar    1  UNL1        0.0111
     38 C         139.2286  140.2464  165.7164 C.ar    1  UNL1       -0.0015
@<TRIPOS>BOND
     1    25    26    1
     2    26    27   ar
     3    27    28   ar
     4    28    24    1
     5    24     1    1
     6     1     2   am
     7     2     3    2
     8     5     2    1
     9     5     6    1
    10     6     7    1
    11     7     8    1
    12     8    18    1
    13    18    19    1
    14    19    20    1
    15    20    21    1
    16    21    22    1
    17    22    23    1
    18     8     9    1
    19     9    10    1
    20    10    11    1
    21    11    12   ar
    22    12    13   ar
    23    13    14   ar
    24    14    15    1
    25    14    16   ar
    26    16    17   ar
    27    24    32    1
    28    32    33   ar
    29    33    34   ar
    30    34    35   ar
    31    35    36    1
    32    35    37   ar
    33    37    38   ar
    34    28    29   ar
    35    29    30   ar
    36    30    31   ar
    37    31    26   ar
    38    10     5    1
    39    17    11   ar
    40    38    32   ar
    41    23    18    1
    42     1     4    1
@<TRIPOS>MOLECULE
*****
 38 42 0 0 0
SMALL
GASTEIGER

@<TRIPOS>ATOM
      1 N         141.1739  141.2719  161.0121 N.am    1  UNL1       -0.2986
      2 C         142.4964  140.8948  160.4129 C.2     1  UNL1        0.2227
      3 O         143.7391  141.6334  160.8134 O.2     1  UNL1       -0.2751
      4 H         140.3583  140.7871  160.7493 H       1  UNL1        0.1500
      5 C         142.5762  139.7793  159.4134 C.3     1  UNL1        0.0806
      6 C         143.2379  140.0070  158.0866 C.3     1  UNL1        0.0108
      7 C         143.3177  138.8915  157.0870 C.3     1  UNL1        0.0165
      8 C         142.7359  137.5482  157.4142 C.3     1  UNL1        0.0580
      9 C         142.0742  137.3205  158.7410 C.3     1  UNL1        0.0208
     10 C         141.9944  138.4360  159.7406 C.3     1  UNL1        0.0323
     11 C         141.3328  138.2083  161.0673 C.ar    1  UNL1       -0.0220
     12 C         142.1677  137.9883  162.2939 C.ar    1  UNL1       -0.0038
     13 C         141.5060  137.7605  163.6207 C.ar    1  UNL1        0.0064
     14 C         140.0094  137.7528  163.7209 C.ar    1  UNL1        0.0345
     15 BR        139.3477  137.5250  165.0477 Br      1  UNL1       -0.0490
     16 C         139.1745  137.9728  162.4943 C.ar    1  UNL1        0.0064
     17 C         139.8361  138.2005  161.1676 C.ar    1  UNL1       -0.0038
     18 N         142.8157  136.4326  156.4146 N.3     1  UNL1       -0.2697
     19 C         142.3427  136.6508  155.0080 C.3     1  UNL1        0.1046
     20 C         142.4225  135.5352  154.0083 C.3     1  UNL1        0.1595
     21 O         142.9752  134.2015  154.4154 O.3     1  UNL1       -0.3508
     22 C         143.4482  133.9834  155.8222 C.3     1  UNL1        0.1595
     23 C         143.3684  135.0989  156.8217 C.3     1  UNL1        0.1046
     24 C         141.0941  142.3874  162.0116 C.3     1  UNL1        0.1170
     25 C         140.3334  145.9224  158.2800 C.3     1  UNL1        0.0521
     26 C         140.2362  145.5114  159.7193 C.ar    1  UNL1        0.0591
     27 C         140.7138  144.1549  160.1458 C.ar    1  UNL1        0.0124
     28 C         140.6165  143.7439  161.5851 C.ar    1  UNL1        0.0024
     29 C         140.0417  144.6893  162.5979 C.ar    1  UNL1        0.0183
     30 C         139.5641  146.0457  162.1714 C.ar    1  UNL1        0.0982
     31 N         139.6613  146.4568  160.7321 N.ar    1  UNL1       -0.2482
     32 C         141.4920  142.1465  163.4377 C.ar    1  UNL1       -0.0003
     33 C         142.7705  142.7251  163.9677 C.ar    1  UNL1       -0.0015
     34 C         143.1683  142.4842  165.3938 C.ar    1  UNL1        0.0111
     35 C         142.2876  141.6648  166.2899 C.ar    1  UNL1        0.0577
     36 CL        142.6854  141.4239  167.7160 Cl      1  UNL1       -0.0822
     37 C         141.0091  141.0863  165.7599 C.ar    1  UNL1        0.0111
     38 C         140.6113  141.3271  164.3338 C.ar    1  UNL1       -0.0015
@<TRIPOS>BOND
     1    25    26    1
     2    26    27   ar
     3    27    28   ar
     4    28    24    1
     5    24     1    1
     6     1     2   am
     7     2     3    2
     8     5     2    1
     9     5     6    1
    10     6     7    1
    11     7     8    1
    12     8    18    1
    13    18    19    1
    14    19    20    1
    15    20    21    1
    16    21    22    1
    17    22    23    1
    18     8     9    1
    19     9    10    1
    20    10    11    1
    21    11    12   ar
    22    12    13   ar
    23    13    14   ar
    24    14    15    1
    25    14    16   ar
    26    16    17   ar
    27    24    32    1
    28    32    33   ar
    29    33    34   ar
    30    34    35   ar
    31    35    36    1
    32    35    37   ar
    33    37    38   ar
    34    28    29   ar
    35    29    30   ar
    36    30    31   ar
    37    31    26   ar
    38    10     5    1
    39    17    11   ar
    40    38    32   ar
    41    23    18    1
    42     1     4    1
@<TRIPOS>MOLECULE
*****
 38 42 0 0 0
SMALL
GASTEIGER

@<TRIPOS>ATOM
      1 N         141.3771  138.3596  158.8440 N.am    1  UNL1       -0.2986
      2 C         142.2458  138.5992  160.0433 C.2     1  UNL1        0.2227
      3 O         143.7333  138.7057  159.8827 O.2     1  UNL1       -0.2751
      4 H         140.4008  138.2897  158.9495 H       1  UNL1        0.1500
      5 C         141.6268  138.7324  161.4031 C.3     1  UNL1        0.0806
      6 C         141.4858  137.5267  162.2843 C.3     1  UNL1        0.0108
      7 C         140.8668  137.6599  163.6441 C.3     1  UNL1        0.0165
      8 C         140.3889  138.9987  164.1228 C.3     1  UNL1        0.0580
      9 C         140.5299  140.2044  163.2416 C.3     1  UNL1        0.0208
     10 C         141.1488  140.0712  161.8818 C.3     1  UNL1        0.0323
     11 C         141.2898  141.2769  161.0006 C.ar    1  UNL1       -0.0220
     12 C         140.1217  141.7535  160.1892 C.ar    1  UNL1       -0.0038
     13 C         140.2628  142.9593  159.3080 C.ar    1  UNL1        0.0064
     14 C         141.5718  143.6882  159.2383 C.ar    1  UNL1        0.0345
     15 BR        141.7129  144.8940  158.3571 Br      1  UNL1       -0.0490
     16 C         142.7399  143.2115  160.0497 C.ar    1  UNL1        0.0064
     17 C         142.5989  142.0059  160.9308 C.ar    1  UNL1       -0.0038
     18 N         139.7699  139.1318  165.4826 N.3     1  UNL1       -0.2697
     19 C         140.4988  139.8642  166.5699 C.3     1  UNL1        0.1046
     20 C         139.8799  139.9974  167.9298 C.3     1  UNL1        0.1595
     21 O         138.5320  139.3982  168.2023 O.3     1  UNL1       -0.3508
     22 C         137.8031  138.6658  167.1149 C.3     1  UNL1        0.1595
     23 C         138.4221  138.5326  165.7551 C.3     1  UNL1        0.1046
     24 C         141.9961  138.2264  157.4842 C.3     1  UNL1        0.1170
     25 C         143.9337  133.4330  156.9659 C.3     1  UNL1        0.0521
     26 C         142.9727  134.4997  156.5315 C.ar    1  UNL1        0.0591
     27 C         142.9649  135.8297  157.2250 C.ar    1  UNL1        0.0124
     28 C         142.0039  136.8963  156.7907 C.ar    1  UNL1        0.0024
     29 C         141.0506  136.6330  155.6629 C.ar    1  UNL1        0.0183
     30 C         141.0585  135.3030  154.9694 C.ar    1  UNL1        0.0982
     31 N         142.0195  134.2363  155.4037 N.ar    1  UNL1       -0.2482
     32 C         142.6073  139.4233  156.8179 C.ar    1  UNL1       -0.0003
     33 C         141.9136  140.7518  156.8796 C.ar    1  UNL1       -0.0015
     34 C         142.5248  141.9487  156.2133 C.ar    1  UNL1        0.0111
     35 C         143.8297  141.8170  155.4852 C.ar    1  UNL1        0.0577
     36 CL        144.4409  143.0138  154.8189 Cl      1  UNL1       -0.0822
     37 C         144.5233  140.4884  155.4235 C.ar    1  UNL1        0.0111
     38 C         143.9121  139.2916  156.0899 C.ar    1  UNL1       -0.0015
@<TRIPOS>BOND
     1    25    26    1
     2    26    27   ar
     3    27    28   ar
     4    28    24    1
     5    24     1    1
     6     1     2   am
     7     2     3    2
     8     5     2    1
     9     5     6    1
    10     6     7    1
    11     7     8    1
    12     8    18    1
    13    18    19    1
    14    19    20    1
    15    20    21    1
    16    21    22    1
    17    22    23    1
    18     8     9    1
    19     9    10    1
    20    10    11    1
    21    11    12   ar
    22    12    13   ar
    23    13    14   ar
    24    14    15    1
    25    14    16   ar
    26    16    17   ar
    27    24    32    1
    28    32    33   ar
    29    33    34   ar
    30    34    35   ar
    31    35    36    1
    32    35    37   ar
    33    37    38   ar
    34    28    29   ar
    35    29    30   ar
    36    30    31   ar
    37    31    26   ar
    38    10     5    1
    39    17    11   ar
    40    38    32   ar
    41    23    18    1
    42     1     4    1
@<TRIPOS>MOLECULE
*****
 38 42 0 0 0
SMALL
GASTEIGER

@<TRIPOS>ATOM
      1 N         141.0429  141.7140  158.2668 N.am    1  UNL1       -0.2986
      2 C         142.2780  141.1060  157.6710 C.2     1  UNL1        0.2227
      3 O         143.4578  141.9727  157.3440 O.2     1  UNL1       -0.2751
      4 H         140.2685  141.1452  158.4815 H       1  UNL1        0.1500
      5 C         142.3332  139.6313  157.4023 C.3     1  UNL1        0.0806
      6 C         142.1558  139.1166  156.0046 C.3     1  UNL1        0.0108
      7 C         142.2110  137.6418  155.7358 C.3     1  UNL1        0.0165
      8 C         142.4437  136.6819  156.8647 C.3     1  UNL1        0.0580
      9 C         142.6211  137.1967  158.2624 C.3     1  UNL1        0.0208
     10 C         142.5659  138.6714  158.5312 C.3     1  UNL1        0.0323
     11 C         142.7433  139.1862  159.9288 C.ar    1  UNL1       -0.0220
     12 C         141.5546  139.3268  160.8329 C.ar    1  UNL1       -0.0038
     13 C         141.7321  139.8416  162.2306 C.ar    1  UNL1        0.0064
     14 C         143.0982  140.2157  162.7242 C.ar    1  UNL1        0.0345
     15 BR        143.2757  140.7305  164.1220 Br      1  UNL1       -0.0490
     16 C         144.2869  140.0751  161.8202 C.ar    1  UNL1        0.0064
     17 C         144.1095  139.5603  160.4226 C.ar    1  UNL1       -0.0038
     18 N         142.4989  135.2073  156.5960 N.3     1  UNL1       -0.2697
     19 C         143.4319  134.3359  157.3834 C.3     1  UNL1        0.1046
     20 C         143.4872  132.8611  157.1147 C.3     1  UNL1        0.1595
     21 O         142.6094  132.2578  156.0585 O.3     1  UNL1       -0.3508
     22 C         141.6763  133.1293  155.2710 C.3     1  UNL1        0.1595
     23 C         141.6211  134.6040  155.5398 C.3     1  UNL1        0.1046
     24 C         140.9877  143.1887  158.5356 C.3     1  UNL1        0.1170
     25 C         137.4824  144.7500  155.0319 C.3     1  UNL1        0.0521
     26 C         138.8169  144.9146  155.6967 C.ar    1  UNL1        0.0591
     27 C         139.2350  143.9694  156.7837 C.ar    1  UNL1        0.0124
     28 C         140.5695  144.1341  157.4486 C.ar    1  UNL1        0.0024
     29 C         141.4859  145.2440  157.0264 C.ar    1  UNL1        0.0183
     30 C         141.0677  146.1893  155.9394 C.ar    1  UNL1        0.0982
     31 N         139.7333  146.0246  155.2746 N.ar    1  UNL1       -0.2482
     32 C         141.3505  143.7181  159.8913 C.ar    1  UNL1       -0.0003
     33 C         142.6384  143.3028  160.5386 C.ar    1  UNL1       -0.0015
     34 C         143.0013  143.8322  161.8944 C.ar    1  UNL1        0.0111
     35 C         142.0763  144.7769  162.6028 C.ar    1  UNL1        0.0577
     36 CL        142.4391  145.3063  163.9586 Cl      1  UNL1       -0.0822
     37 C         140.7884  145.1922  161.9556 C.ar    1  UNL1        0.0111
     38 C         140.4256  144.6628  160.5998 C.ar    1  UNL1       -0.0015
@<TRIPOS>BOND
     1    25    26    1
     2    26    27   ar
     3    27    28   ar
     4    28    24    1
     5    24     1    1
     6     1     2   am
     7     2     3    2
     8     5     2    1
     9     5     6    1
    10     6     7    1
    11     7     8    1
    12     8    18    1
    13    18    19    1
    14    19    20    1
    15    20    21    1
    16    21    22    1
    17    22    23    1
    18     8     9    1
    19     9    10    1
    20    10    11    1
    21    11    12   ar
    22    12    13   ar
    23    13    14   ar
    24    14    15    1
    25    14    16   ar
    26    16    17   ar
    27    24    32    1
    28    32    33   ar
    29    33    34   ar
    30    34    35   ar
    31    35    36    1
    32    35    37   ar
    33    37    38   ar
    34    28    29   ar
    35    29    30   ar
    36    30    31   ar
    37    31    26   ar
    38    10     5    1
    39    17    11   ar
    40    38    32   ar
    41    23    18    1
    42     1     4    1
@<TRIPOS>MOLECULE
*****
 38 42 0 0 0
SMALL
GASTEIGER

@<TRIPOS>ATOM
      1 N         140.9031  141.0005  159.0632 N.am    1  UNL1       -0.2986
      2 C         142.2806  140.5044  158.7365 C.2     1  UNL1        0.2227
      3 O         143.4694  141.3921  158.9575 O.2     1  UNL1       -0.2751
      4 H         140.1229  140.4179  158.9182 H       1  UNL1        0.1500
      5 C         142.4692  139.1208  158.1889 C.3     1  UNL1        0.0806
      6 C         142.4295  138.8887  156.7075 C.3     1  UNL1        0.0108
      7 C         142.6181  137.5050  156.1598 C.3     1  UNL1        0.0165
      8 C         142.8463  136.3535  157.0936 C.3     1  UNL1        0.0580
      9 C         142.8860  136.5856  158.5750 C.3     1  UNL1        0.0208
     10 C         142.6974  137.9693  159.1227 C.3     1  UNL1        0.0323
     11 C         142.7370  138.2014  160.6040 C.ar    1  UNL1       -0.0220
     12 C         141.5204  137.9304  161.4385 C.ar    1  UNL1       -0.0038
     13 C         141.5601  138.1626  162.9199 C.ar    1  UNL1        0.0064
     14 C         142.8164  138.6656  163.5668 C.ar    1  UNL1        0.0345
     15 BR        142.8561  138.8978  165.0483 Br      1  UNL1       -0.0490
     16 C         144.0330  138.9366  162.7324 C.ar    1  UNL1        0.0064
     17 C         143.9934  138.7045  161.2510 C.ar    1  UNL1       -0.0038
     18 N         143.0349  134.9698  156.5460 N.3     1  UNL1       -0.2697
     19 C         142.6624  134.6686  155.1246 C.3     1  UNL1        0.1046
     20 C         142.8509  133.2849  154.5769 C.3     1  UNL1        0.1595
     21 O         143.4121  132.2025  155.4507 O.3     1  UNL1       -0.3508
     22 C         143.7846  132.5038  156.8721 C.3     1  UNL1        0.1595
     23 C         143.5960  133.8874  157.4198 C.3     1  UNL1        0.1046
     24 C         140.7146  142.3842  159.6108 C.3     1  UNL1        0.1170
     25 C         138.6567  144.9527  155.5899 C.3     1  UNL1        0.0521
     26 C         139.6879  144.8483  156.6742 C.ar    1  UNL1        0.0591
     27 C         139.6857  143.6685  157.6003 C.ar    1  UNL1        0.0124
     28 C         140.7169  143.5641  158.6846 C.ar    1  UNL1        0.0024
     29 C         141.7503  144.6397  158.8428 C.ar    1  UNL1        0.0183
     30 C         141.7526  145.8196  157.9166 C.ar    1  UNL1        0.0982
     31 N         140.7214  145.9239  156.8323 N.ar    1  UNL1       -0.2482
     32 C         140.5237  142.5879  161.0846 C.ar    1  UNL1       -0.0003
     33 C         141.3961  141.8573  162.0619 C.ar    1  UNL1       -0.0015
     34 C         141.2053  142.0611  163.5357 C.ar    1  UNL1        0.0111
     35 C         140.1419  142.9954  164.0322 C.ar    1  UNL1        0.0577
     36 CL        139.9510  143.1992  165.5059 Cl      1  UNL1       -0.0822
     37 C         139.2695  143.7260  163.0548 C.ar    1  UNL1        0.0111
     38 C         139.4604  143.5222  161.5810 C.ar    1  UNL1       -0.0015
@<TRIPOS>BOND
     1    25    26    1
     2    26    27   ar
     3    27    28   ar
     4    28    24    1
     5    24     1    1
     6     1     2   am
     7     2     3    2
     8     5     2    1
     9     5     6    1
    10     6     7    1
    11     7     8    1
    12     8    18    1
    13    18    19    1
    14    19    20    1
    15    20    21    1
    16    21    22    1
    17    22    23    1
    18     8     9    1
    19     9    10    1
    20    10    11    1
    21    11    12   ar
    22    12    13   ar
    23    13    14   ar
    24    14    15    1
    25    14    16   ar
    26    16    17   ar
    27    24    32    1
    28    32    33   ar
    29    33    34   ar
    30    34    35   ar
    31    35    36    1
    32    35    37   ar
    33    37    38   ar
    34    28    29   ar
    35    29    30   ar
    36    30    31   ar
    37    31    26   ar
    38    10     5    1
    39    17    11   ar
    40    38    32   ar
    41    23    18    1
    42     1     4    1
@<TRIPOS>MOLECULE
*****
 38 42 0 0 0
SMALL
GASTEIGER

@<TRIPOS>ATOM
      1 N         139.9617  140.9358  158.6484 N.am    1  UNL1       -0.2986
      2 C         141.0435  141.9014  158.2642 C.2     1  UNL1        0.2227
      3 O         142.4843  141.5166  158.4259 O.2     1  UNL1       -0.2751
      4 H         139.0161  141.1883  158.5423 H       1  UNL1        0.1500
      5 C         140.6845  143.2516  157.7183 C.3     1  UNL1        0.0806
      6 C         140.5654  143.4541  156.2368 C.3     1  UNL1        0.0108
      7 C         140.2064  144.8044  155.6909 C.3     1  UNL1        0.0165
      8 C         139.9665  145.9520  156.6265 C.3     1  UNL1        0.0580
      9 C         140.0856  145.7494  158.1080 C.3     1  UNL1        0.0208
     10 C         140.4446  144.3992  158.6539 C.3     1  UNL1        0.0323
     11 C         140.5637  144.1967  160.1353 C.ar    1  UNL1       -0.0220
     12 C         139.3811  143.7184  160.9244 C.ar    1  UNL1       -0.0038
     13 C         139.5003  143.5158  162.4059 C.ar    1  UNL1        0.0064
     14 C         140.8020  143.7916  163.0983 C.ar    1  UNL1        0.0345
     15 BR        140.9211  143.5891  164.5798 Br      1  UNL1       -0.0490
     16 C         141.9846  144.2700  162.3092 C.ar    1  UNL1        0.0064
     17 C         141.8655  144.4725  160.8278 C.ar    1  UNL1       -0.0038
     18 N         139.6075  147.3022  156.0806 N.3     1  UNL1       -0.2697
     19 C         140.0729  147.7063  154.7131 C.3     1  UNL1        0.1046
     20 C         139.7140  149.0565  154.1672 C.3     1  UNL1        0.1595
     21 O         138.8895  150.0027  154.9888 O.3     1  UNL1       -0.3508
     22 C         138.4241  149.5986  156.3564 C.3     1  UNL1        0.1595
     23 C         138.7831  148.2484  156.9022 C.3     1  UNL1        0.1046
     24 C         140.3207  139.5856  159.1942 C.3     1  UNL1        0.1170
     25 C         139.7314  136.4964  155.0578 C.3     1  UNL1        0.0521
     26 C         140.5606  136.9798  156.2105 C.ar    1  UNL1        0.0591
     27 C         140.0261  138.0410  157.1260 C.ar    1  UNL1        0.0124
     28 C         140.8553  138.5244  158.2787 C.ar    1  UNL1        0.0024
     29 C         142.2191  137.9467  158.5160 C.ar    1  UNL1        0.0183
     30 C         142.7536  136.8855  157.6005 C.ar    1  UNL1        0.0982
     31 N         141.9244  136.4021  156.4478 N.ar    1  UNL1       -0.2482
     32 C         140.1451  139.2965  160.6556 C.ar    1  UNL1       -0.0003
     33 C         139.2891  138.1456  161.0949 C.ar    1  UNL1       -0.0015
     34 C         139.1136  137.8566  162.5563 C.ar    1  UNL1        0.0111
     35 C         139.7939  138.7184  163.5784 C.ar    1  UNL1        0.0577
     36 CL        139.6183  138.4293  165.0397 Cl      1  UNL1       -0.0822
     37 C         140.6498  139.8692  163.1390 C.ar    1  UNL1        0.0111
     38 C         140.8254  140.1583  161.6776 C.ar    1  UNL1       -0.0015
@<TRIPOS>BOND
     1    25    26    1
     2    26    27   ar
     3    27    28   ar
     4    28    24    1
     5    24     1    1
     6     1     2   am
     7     2     3    2
     8     5     2    1
     9     5     6    1
    10     6     7    1
    11     7     8    1
    12     8    18    1
    13    18    19    1
    14    19    20    1
    15    20    21    1
    16    21    22    1
    17    22    23    1
    18     8     9    1
    19     9    10    1
    20    10    11    1
    21    11    12   ar
    22    12    13   ar
    23    13    14   ar
    24    14    15    1
    25    14    16   ar
    26    16    17   ar
    27    24    32    1
    28    32    33   ar
    29    33    34   ar
    30    34    35   ar
    31    35    36    1
    32    35    37   ar
    33    37    38   ar
    34    28    29   ar
    35    29    30   ar
    36    30    31   ar
    37    31    26   ar
    38    10     5    1
    39    17    11   ar
    40    38    32   ar
    41    23    18    1
    42     1     4    1
@<TRIPOS>MOLECULE
*****
 38 42 0 0 0
SMALL
GASTEIGER

@<TRIPOS>ATOM
      1 N         141.5918  138.6192  158.8029 N.am    1  UNL1       -0.2986
      2 C         142.4140  138.8260  160.0404 C.2     1  UNL1        0.2227
      3 O         143.9040  138.9640  159.9365 O.2     1  UNL1       -0.2751
      4 H         140.6139  138.5286  158.8711 H       1  UNL1        0.1500
      5 C         141.7461  138.8948  161.3817 C.3     1  UNL1        0.0806
      6 C         141.6514  137.6656  162.2362 C.3     1  UNL1        0.0108
      7 C         140.9836  137.7344  163.5776 C.3     1  UNL1        0.0165
      8 C         140.4104  139.0323  164.0644 C.3     1  UNL1        0.0580
      9 C         140.5052  140.2614  163.2099 C.3     1  UNL1        0.0208
     10 C         141.1730  140.1927  161.8685 C.3     1  UNL1        0.0323
     11 C         141.2677  141.4218  161.0140 C.ar    1  UNL1       -0.0220
     12 C         142.5219  142.2446  161.0200 C.ar    1  UNL1       -0.0038
     13 C         142.6166  143.4738  160.1655 C.ar    1  UNL1        0.0064
     14 C         141.4571  143.8801  159.3049 C.ar    1  UNL1        0.0345
     15 BR        141.5518  145.1093  158.4504 Br      1  UNL1       -0.0490
     16 C         140.2030  143.0573  159.2989 C.ar    1  UNL1        0.0064
     17 C         140.1082  141.8281  160.1534 C.ar    1  UNL1       -0.0038
     18 N         139.7426  139.1010  165.4058 N.3     1  UNL1       -0.2697
     19 C         140.3735  139.8846  166.5184 C.3     1  UNL1        0.1046
     20 C         139.7056  139.9534  167.8598 C.3     1  UNL1        0.1595
     21 O         138.4069  139.2386  168.0885 O.3     1  UNL1       -0.3508
     22 C         137.7760  138.4550  166.9758 C.3     1  UNL1        0.1595
     23 C         138.4438  138.3862  165.6345 C.3     1  UNL1        0.1046
     24 C         142.2597  138.5504  157.4616 C.3     1  UNL1        0.1170
     25 C         146.2878  140.9813  155.2559 C.3     1  UNL1        0.0521
     26 C         144.8735  141.0013  155.7553 C.ar    1  UNL1        0.0591
     27 C         144.2737  139.7659  156.3587 C.ar    1  UNL1        0.0124
     28 C         142.8594  139.7859  156.8581 C.ar    1  UNL1        0.0024
     29 C         142.0449  141.0411  156.7540 C.ar    1  UNL1        0.0183
     30 C         142.6447  142.2764  156.1506 C.ar    1  UNL1        0.0982
     31 N         144.0590  142.2565  155.6512 N.ar    1  UNL1       -0.2482
     32 C         142.3278  137.2463  156.7236 C.ar    1  UNL1       -0.0003
     33 C         142.9779  136.0555  157.3636 C.ar    1  UNL1       -0.0015
     34 C         143.0460  134.7514  156.6256 C.ar    1  UNL1        0.0111
     35 C         142.4640  134.6380  155.2477 C.ar    1  UNL1        0.0577
     36 CL        142.5322  133.3338  154.5098 Cl      1  UNL1       -0.0822
     37 C         141.8139  135.8287  154.6079 C.ar    1  UNL1        0.0111
     38 C         141.7458  137.1329  155.3458 C.ar    1  UNL1       -0.0015
@<TRIPOS>BOND
     1    25    26    1
     2    26    27   ar
     3    27    28   ar
     4    28    24    1
     5    24     1    1
     6     1     2   am
     7     2     3    2
     8     5     2    1
     9     5     6    1
    10     6     7    1
    11     7     8    1
    12     8    18    1
    13    18    19    1
    14    19    20    1
    15    20    21    1
    16    21    22    1
    17    22    23    1
    18     8     9    1
    19     9    10    1
    20    10    11    1
    21    11    12   ar
    22    12    13   ar
    23    13    14   ar
    24    14    15    1
    25    14    16   ar
    26    16    17   ar
    27    24    32    1
    28    32    33   ar
    29    33    34   ar
    30    34    35   ar
    31    35    36    1
    32    35    37   ar
    33    37    38   ar
    34    28    29   ar
    35    29    30   ar
    36    30    31   ar
    37    31    26   ar
    38    10     5    1
    39    17    11   ar
    40    38    32   ar
    41    23    18    1
    42     1     4    1
@<TRIPOS>MOLECULE
*****
 38 42 0 0 0
SMALL
GASTEIGER

@<TRIPOS>ATOM
      1 N         140.7238  140.8302  159.0761 N.am    1  UNL1       -0.2986
      2 C         142.1107  140.4087  158.6901 C.2     1  UNL1        0.2227
      3 O         143.2548  141.3673  158.8395 O.2     1  UNL1       -0.2751
      4 H         139.9729  140.2011  158.9781 H       1  UNL1        0.1500
      5 C         142.3536  139.0287  158.1549 C.3     1  UNL1        0.0806
      6 C         142.2830  138.7738  156.6784 C.3     1  UNL1        0.0108
      7 C         142.5258  137.3937  156.1431 C.3     1  UNL1        0.0165
      8 C         142.8392  136.2686  157.0843 C.3     1  UNL1        0.0580
      9 C         142.9097  136.5235  158.5609 C.3     1  UNL1        0.0208
     10 C         142.6669  137.9036  159.0961 C.3     1  UNL1        0.0323
     11 C         142.7374  138.1585  160.5726 C.ar    1  UNL1       -0.0220
     12 C         144.0116  138.6567  161.1877 C.ar    1  UNL1       -0.0038
     13 C         144.0821  138.9116  162.6642 C.ar    1  UNL1        0.0064
     14 C         142.8785  138.6683  163.5256 C.ar    1  UNL1        0.0345
     15 BR        142.9490  138.9232  165.0022 Br      1  UNL1       -0.0490
     16 C         141.6043  138.1701  162.9105 C.ar    1  UNL1        0.0064
     17 C         141.5338  137.9152  161.4341 C.ar    1  UNL1       -0.0038
     18 N         143.0820  134.8886  156.5491 N.3     1  UNL1       -0.2697
     19 C         142.7085  134.5562  155.1349 C.3     1  UNL1        0.1046
     20 C         142.9513  133.1761  154.5996 C.3     1  UNL1        0.1595
     21 O         143.5676  132.1284  155.4785 O.3     1  UNL1       -0.3508
     22 C         143.9411  132.4609  156.8928 C.3     1  UNL1        0.1595
     23 C         143.6983  133.8409  157.4281 C.3     1  UNL1        0.1046
     24 C         140.4810  142.2103  159.6113 C.3     1  UNL1        0.1170
     25 C         137.8399  144.1249  163.6559 C.3     1  UNL1        0.0521
     26 C         139.0263  143.3860  163.1115 C.ar    1  UNL1        0.0591
     27 C         139.1605  143.1676  161.6336 C.ar    1  UNL1        0.0124
     28 C         140.3469  142.4286  161.0893 C.ar    1  UNL1        0.0024
     29 C         141.3993  141.9081  162.0229 C.ar    1  UNL1        0.0183
     30 C         141.2651  142.1265  163.5008 C.ar    1  UNL1        0.0982
     31 N         140.0787  142.8655  164.0451 N.ar    1  UNL1       -0.2482
     32 C         140.3723  143.3719  158.6686 C.ar    1  UNL1       -0.0003
     33 C         139.4771  143.2825  157.4683 C.ar    1  UNL1       -0.0015
     34 C         139.3684  144.4442  156.5256 C.ar    1  UNL1        0.0111
     35 C         140.1548  145.6953  156.7833 C.ar    1  UNL1        0.0577
     36 CL        140.0461  146.8570  155.8406 Cl      1  UNL1       -0.0822
     37 C         141.0499  145.7847  157.9836 C.ar    1  UNL1        0.0111
     38 C         141.1586  144.6230  158.9262 C.ar    1  UNL1       -0.0015
@<TRIPOS>BOND
     1    25    26    1
     2    26    27   ar
     3    27    28   ar
     4    28    24    1
     5    24     1    1
     6     1     2   am
     7     2     3    2
     8     5     2    1
     9     5     6    1
    10     6     7    1
    11     7     8    1
    12     8    18    1
    13    18    19    1
    14    19    20    1
    15    20    21    1
    16    21    22    1
    17    22    23    1
    18     8     9    1
    19     9    10    1
    20    10    11    1
    21    11    12   ar
    22    12    13   ar
    23    13    14   ar
    24    14    15    1
    25    14    16   ar
    26    16    17   ar
    27    24    32    1
    28    32    33   ar
    29    33    34   ar
    30    34    35   ar
    31    35    36    1
    32    35    37   ar
    33    37    38   ar
    34    28    29   ar
    35    29    30   ar
    36    30    31   ar
    37    31    26   ar
    38    10     5    1
    39    17    11   ar
    40    38    32   ar
    41    23    18    1
    42     1     4    1
