@<TRIPOS>MOLECULE
*****
 29 32 0 0 0
SMALL
GASTEIGER

@<TRIPOS>ATOM
      1 C         139.7903  143.1913  160.3604 C.ar    1  UNL1        0.0857
      2 C         141.2841  143.0585  160.3853 C.ar    1  UNL1        0.0384
      3 C         142.0779  143.7201  161.4728 C.ar    1  UNL1        0.0855
      4 N         143.5718  143.5873  161.4977 N.ar    1  UNL1       -0.2437
      5 C         144.3654  144.2488  162.5851 C.ar    1  UNL1        0.0988
      6 C         143.6652  145.0431  163.6475 C.ar    1  UNL1        0.0208
      7 C         142.1713  145.1759  163.6226 C.ar    1  UNL1        0.0059
      8 C         141.3777  144.5144  162.5352 C.ar    1  UNL1        0.0491
      9 C         139.8837  144.6472  162.5102 C.ar    1  UNL1        0.1298
     10 N         139.0901  143.9857  161.4228 N.ar    1  UNL1       -0.2308
     11 C         137.4091  141.2067  157.0983 C.ar    1  UNL1        0.1318
     12 C         138.0211  142.5562  156.8652 C.ar    1  UNL1        0.0344
     13 C         138.8148  143.2178  157.9525 C.ar    1  UNL1        0.0059
     14 C         138.9965  142.5298  159.2729 C.ar    1  UNL1        0.0370
     15 C         138.3846  141.1803  159.5061 C.ar    1  UNL1        0.1018
     16 N         137.5908  140.5188  158.4187 N.ar    1  UNL1       -0.2291
     17 C         137.3204  139.8289  154.8974 C.3     1  UNL1        0.1136
     18 N         136.6154  140.5452  156.0108 N.pl3   1  UNL1       -0.2897
     19 C         135.1166  140.6000  156.0369 C.3     1  UNL1        0.1136
     20 N         139.1835  145.4415  163.5726 N.pl3   1  UNL1       -0.3180
     21 H         139.0587  146.4116  163.4600 H       1  UNL1        0.1482
     22 C         138.6735  144.7579  164.8065 C.3     1  UNL1        0.0895
     23 C         138.7721  143.2665  164.9327 C.3     1  UNL1        0.0353
     24 C         139.9683  142.6471  165.5926 C.3     1  UNL1        0.0045
     25 C         140.0669  141.1557  165.7188 C.3     1  UNL1        0.0172
     26 C         138.9694  140.2837  165.1852 C.3     1  UNL1        0.0686
     27 N         137.7731  140.9030  164.5252 N.3     1  UNL1       -0.2974
     28 C         137.6745  142.3944  164.3990 C.3     1  UNL1        0.0702
     29 H         136.9550  140.5973  165.0521 H       1  UNL1        0.1232
@<TRIPOS>BOND
     1    17    18    1
     2    18    19    1
     3    18    11    1
     4    11    12   ar
     5    12    13   ar
     6    13    14   ar
     7    14     1    1
     8     1     2   ar
     9     2     3   ar
    10     3     4   ar
    11     4     5   ar
    12     5     6   ar
    13     6     7   ar
    14     7     8   ar
    15     8     9   ar
    16     9    20    1
    17    20    22    1
    18    23    22    1
    19    23    24    1
    20    24    25    1
    21    25    26    1
    22    26    27    1
    23    27    28    1
    24     9    10   ar
    25    14    15   ar
    26    15    16   ar
    27    16    11   ar
    28    10     1   ar
    29     8     3   ar
    30    28    23    1
    31    20    21    1
    32    27    29    1
@<TRIPOS>MOLECULE
*****
 29 32 0 0 0
SMALL
GASTEIGER

@<TRIPOS>ATOM
      1 C         139.3933  141.7580  164.5742 C.ar    1  UNL1        0.0857
      2 C         139.2948  140.5741  163.6585 C.ar    1  UNL1        0.0384
      3 C         138.9725  140.7733  162.2071 C.ar    1  UNL1        0.0855
      4 N         138.8740  139.5894  161.2914 N.ar    1  UNL1       -0.2437
      5 C         138.5518  139.7886  159.8400 C.ar    1  UNL1        0.0988
      6 C         138.3281  141.1718  159.3044 C.ar    1  UNL1        0.0208
      7 C         138.4266  142.3557  160.2202 C.ar    1  UNL1        0.0059
      8 C         138.7488  142.1564  161.6715 C.ar    1  UNL1        0.0491
      9 C         138.8473  143.3404  162.5873 C.ar    1  UNL1        0.1298
     10 N         139.1696  143.1411  164.0386 N.ar    1  UNL1       -0.2308
     11 C         140.3600  141.1603  168.9284 C.ar    1  UNL1        0.1318
     12 C         140.6608  142.4724  168.2665 C.ar    1  UNL1        0.0344
     13 C         140.3386  142.6716  166.8152 C.ar    1  UNL1        0.0059
     14 C         139.7156  141.5588  166.0257 C.ar    1  UNL1        0.0370
     15 C         139.4148  140.2467  166.6875 C.ar    1  UNL1        0.1018
     16 N         139.7370  140.0475  168.1388 N.ar    1  UNL1       -0.2291
     17 C         141.6003  141.9170  171.0823 C.3     1  UNL1        0.1136
     18 N         140.6822  140.9611  170.3798 N.pl3   1  UNL1       -0.2897
     19 C         140.0864  139.8060  171.1286 C.3     1  UNL1        0.1136
     20 N         138.6236  144.7235  162.0517 N.pl3   1  UNL1       -0.3180
     21 H         137.7234  145.0009  161.7654 H       1  UNL1        0.1482
     22 C         139.7714  145.6840  161.9523 C.3     1  UNL1        0.0895
     23 C         141.1703  145.2109  162.2157 C.3     1  UNL1        0.0353
     24 C         141.8154  145.4793  163.5430 C.3     1  UNL1        0.0045
     25 C         143.2142  145.0062  163.8063 C.3     1  UNL1        0.0172
     26 C         143.9680  144.2648  162.7424 C.3     1  UNL1        0.0686
     27 N         143.3229  143.9963  161.4150 N.3     1  UNL1       -0.2974
     28 C         141.9241  144.4694  161.1516 C.3     1  UNL1        0.0702
     29 H         143.3202  142.9843  161.2882 H       1  UNL1        0.1232
@<TRIPOS>BOND
     1    17    18    1
     2    18    19    1
     3    18    11    1
     4    11    12   ar
     5    12    13   ar
     6    13    14   ar
     7    14     1    1
     8     1     2   ar
     9     2     3   ar
    10     3     4   ar
    11     4     5   ar
    12     5     6   ar
    13     6     7   ar
    14     7     8   ar
    15     8     9   ar
    16     9    20    1
    17    20    22    1
    18    23    22    1
    19    23    24    1
    20    24    25    1
    21    25    26    1
    22    26    27    1
    23    27    28    1
    24     9    10   ar
    25    14    15   ar
    26    15    16   ar
    27    16    11   ar
    28    10     1   ar
    29     8     3   ar
    30    28    23    1
    31    20    21    1
    32    27    29    1
@<TRIPOS>MOLECULE
*****
 29 32 0 0 0
SMALL
GASTEIGER

@<TRIPOS>ATOM
      1 C         140.4289  142.3432  164.2463 C.ar    1  UNL1        0.0857
      2 C         140.9890  143.2411  163.1833 C.ar    1  UNL1        0.0384
      3 C         140.3970  143.2317  161.8051 C.ar    1  UNL1        0.0855
      4 N         140.9572  144.1296  160.7421 N.ar    1  UNL1       -0.2437
      5 C         140.3651  144.1202  159.3639 C.ar    1  UNL1        0.0988
      6 C         139.2130  143.2129  159.0487 C.ar    1  UNL1        0.0208
      7 C         138.6528  142.3150  160.1117 C.ar    1  UNL1        0.0059
      8 C         139.2448  142.3244  161.4899 C.ar    1  UNL1        0.0491
      9 C         138.6847  141.4265  162.5530 C.ar    1  UNL1        0.1298
     10 N         139.2767  141.4359  163.9311 N.ar    1  UNL1       -0.2308
     11 C         142.2050  142.3712  168.3808 C.ar    1  UNL1        0.1318
     12 C         140.7316  142.5835  168.1960 C.ar    1  UNL1        0.0344
     13 C         140.1396  142.5742  166.8179 C.ar    1  UNL1        0.0059
     14 C         141.0209  142.3525  165.6245 C.ar    1  UNL1        0.0370
     15 C         142.4943  142.1402  165.8094 C.ar    1  UNL1        0.1018
     16 N         143.0863  142.1496  167.1875 N.ar    1  UNL1       -0.2291
     17 C         141.9168  142.1680  170.9549 C.3     1  UNL1        0.1136
     18 N         142.7970  142.3806  169.7591 N.pl3   1  UNL1       -0.2897
     19 C         144.2693  142.6026  169.9414 C.3     1  UNL1        0.1136
     20 N         137.5325  140.5192  162.2378 N.pl3   1  UNL1       -0.3180
     21 H         136.6157  140.8773  162.2159 H       1  UNL1        0.1482
     22 C         137.7772  139.0664  161.9560 C.3     1  UNL1        0.0895
     23 C         138.9140  138.3534  162.6265 C.3     1  UNL1        0.0353
     24 C         138.8594  138.0734  164.0991 C.3     1  UNL1        0.0045
     25 C         139.9962  137.3604  164.7695 C.3     1  UNL1        0.0172
     26 C         141.1874  136.9275  163.9674 C.3     1  UNL1        0.0686
     27 N         141.2420  137.2076  162.4947 N.3     1  UNL1       -0.2974
     28 C         140.1053  137.9205  161.8243 C.3     1  UNL1        0.0702
     29 H         141.3412  136.3065  162.0271 H       1  UNL1        0.1232
@<TRIPOS>BOND
     1    17    18    1
     2    18    19    1
     3    18    11    1
     4    11    12   ar
     5    12    13   ar
     6    13    14   ar
     7    14     1    1
     8     1     2   ar
     9     2     3   ar
    10     3     4   ar
    11     4     5   ar
    12     5     6   ar
    13     6     7   ar
    14     7     8   ar
    15     8     9   ar
    16     9    20    1
    17    20    22    1
    18    23    22    1
    19    23    24    1
    20    24    25    1
    21    25    26    1
    22    26    27    1
    23    27    28    1
    24     9    10   ar
    25    14    15   ar
    26    15    16   ar
    27    16    11   ar
    28    10     1   ar
    29     8     3   ar
    30    28    23    1
    31    20    21    1
    32    27    29    1
@<TRIPOS>MOLECULE
*****
 29 32 0 0 0
SMALL
GASTEIGER

@<TRIPOS>ATOM
      1 C         140.1281  140.0929  164.5951 C.ar    1  UNL1        0.0857
      2 C         139.1178  140.6814  163.6555 C.ar    1  UNL1        0.0384
      3 C         139.0766  140.2363  162.2236 C.ar    1  UNL1        0.0855
      4 N         138.0663  140.8248  161.2840 N.ar    1  UNL1       -0.2437
      5 C         138.0252  140.3797  159.8522 C.ar    1  UNL1        0.0988
      6 C         138.9943  139.3460  159.3600 C.ar    1  UNL1        0.0208
      7 C         140.0046  138.7574  160.2996 C.ar    1  UNL1        0.0059
      8 C         140.0458  139.2026  161.7314 C.ar    1  UNL1        0.0491
      9 C         141.0561  138.6140  162.6711 C.ar    1  UNL1        0.1298
     10 N         141.0972  139.0592  164.1029 N.ar    1  UNL1       -0.2308
     11 C         140.2516  141.4282  168.8907 C.ar    1  UNL1        0.1318
     12 C         140.8795  142.2751  167.8236 C.ar    1  UNL1        0.0344
     13 C         140.8383  141.8300  166.3918 C.ar    1  UNL1        0.0059
     14 C         140.1693  140.5380  166.0270 C.ar    1  UNL1        0.0370
     15 C         139.5414  139.6911  167.0940 C.ar    1  UNL1        0.1018
     16 N         139.5825  140.1362  168.5258 N.ar    1  UNL1       -0.2291
     17 C         139.6679  143.1775  170.7208 C.3     1  UNL1        0.1136
     18 N         140.2927  141.8733  170.3225 N.pl3   1  UNL1       -0.2897
     19 C         140.9588  141.0142  171.3561 C.3     1  UNL1        0.1136
     20 N         142.0252  137.5804  162.1789 N.pl3   1  UNL1       -0.3180
     21 H         141.7917  136.6251  162.2253 H       1  UNL1        0.1482
     22 C         143.3501  138.0021  161.6161 C.3     1  UNL1        0.0895
     23 C         144.0666  139.1874  162.1922 C.3     1  UNL1        0.0353
     24 C         144.5379  139.1596  163.6159 C.3     1  UNL1        0.0045
     25 C         145.2545  140.3449  164.1919 C.3     1  UNL1        0.0172
     26 C         145.4997  141.5578  163.3442 C.3     1  UNL1        0.0686
     27 N         145.0283  141.5856  161.9204 N.3     1  UNL1       -0.2974
     28 C         144.3118  140.4003  161.3444 C.3     1  UNL1        0.0702
     29 H         145.8527  141.7418  161.3404 H       1  UNL1        0.1232
@<TRIPOS>BOND
     1    17    18    1
     2    18    19    1
     3    18    11    1
     4    11    12   ar
     5    12    13   ar
     6    13    14   ar
     7    14     1    1
     8     1     2   ar
     9     2     3   ar
    10     3     4   ar
    11     4     5   ar
    12     5     6   ar
    13     6     7   ar
    14     7     8   ar
    15     8     9   ar
    16     9    20    1
    17    20    22    1
    18    23    22    1
    19    23    24    1
    20    24    25    1
    21    25    26    1
    22    26    27    1
    23    27    28    1
    24     9    10   ar
    25    14    15   ar
    26    15    16   ar
    27    16    11   ar
    28    10     1   ar
    29     8     3   ar
    30    28    23    1
    31    20    21    1
    32    27    29    1
@<TRIPOS>MOLECULE
*****
 29 32 0 0 0
SMALL
GASTEIGER

@<TRIPOS>ATOM
      1 C         139.5399  141.8231  164.4997 C.ar    1  UNL1        0.0857
      2 C         140.1964  142.9229  163.7191 C.ar    1  UNL1        0.0384
      3 C         139.9020  143.0837  162.2570 C.ar    1  UNL1        0.0855
      4 N         140.5584  144.1835  161.4763 N.ar    1  UNL1       -0.2437
      5 C         140.2640  144.3443  160.0143 C.ar    1  UNL1        0.0988
      6 C         139.3132  143.4052  159.3330 C.ar    1  UNL1        0.0208
      7 C         138.6568  142.3054  160.1137 C.ar    1  UNL1        0.0059
      8 C         138.9512  142.1446  161.5757 C.ar    1  UNL1        0.0491
      9 C         138.2947  141.0448  162.3565 C.ar    1  UNL1        0.1298
     10 N         138.5891  140.8840  163.8184 N.ar    1  UNL1       -0.2308
     11 C         140.4230  141.3405  168.8858 C.ar    1  UNL1        0.1318
     12 C         140.7232  142.6397  168.1988 C.ar    1  UNL1        0.0344
     13 C         140.4288  142.8006  166.7368 C.ar    1  UNL1        0.0059
     14 C         139.8343  141.6622  165.9618 C.ar    1  UNL1        0.0370
     15 C         139.5342  140.3630  166.6488 C.ar    1  UNL1        0.1018
     16 N         139.8285  140.2021  168.1108 N.ar    1  UNL1       -0.2291
     17 C         140.1757  139.9981  171.0964 C.3     1  UNL1        0.1136
     18 N         140.7174  141.1797  170.3478 N.pl3   1  UNL1       -0.2897
     19 C         141.5535  142.2005  171.0612 C.3     1  UNL1        0.1136
     20 N         137.3439  140.1058  161.6752 N.pl3   1  UNL1       -0.3180
     21 H         136.4328  140.4043  161.4514 H       1  UNL1        0.1482
     22 C         137.7812  138.7119  161.3347 C.3     1  UNL1        0.0895
     23 C         139.2424  138.3808  161.2629 C.3     1  UNL1        0.0353
     24 C         140.0437  138.7801  160.0594 C.3     1  UNL1        0.0045
     25 C         141.5049  138.4490  159.9876 C.3     1  UNL1        0.0172
     26 C         142.1649  137.7185  161.1193 C.3     1  UNL1        0.0686
     27 N         141.3636  137.3191  162.3229 N.3     1  UNL1       -0.2974
     28 C         139.9024  137.6503  162.3947 C.3     1  UNL1        0.0702
     29 H         141.8053  137.7594  163.1300 H       1  UNL1        0.1232
@<TRIPOS>BOND
     1    17    18    1
     2    18    19    1
     3    18    11    1
     4    11    12   ar
     5    12    13   ar
     6    13    14   ar
     7    14     1    1
     8     1     2   ar
     9     2     3   ar
    10     3     4   ar
    11     4     5   ar
    12     5     6   ar
    13     6     7   ar
    14     7     8   ar
    15     8     9   ar
    16     9    20    1
    17    20    22    1
    18    23    22    1
    19    23    24    1
    20    24    25    1
    21    25    26    1
    22    26    27    1
    23    27    28    1
    24     9    10   ar
    25    14    15   ar
    26    15    16   ar
    27    16    11   ar
    28    10     1   ar
    29     8     3   ar
    30    28    23    1
    31    20    21    1
    32    27    29    1
@<TRIPOS>MOLECULE
*****
 29 32 0 0 0
SMALL
GASTEIGER

@<TRIPOS>ATOM
      1 C         141.0327  139.0306  162.6725 C.ar    1  UNL1        0.0857
      2 C         141.9744  138.9552  163.8376 C.ar    1  UNL1        0.0384
      3 C         141.5087  139.3569  165.2057 C.ar    1  UNL1        0.0855
      4 N         142.4504  139.2816  166.3708 N.ar    1  UNL1       -0.2437
      5 C         141.9846  139.6833  167.7388 C.ar    1  UNL1        0.0988
      6 C         140.5771  140.1603  167.9418 C.ar    1  UNL1        0.0208
      7 C         139.6353  140.2357  166.7768 C.ar    1  UNL1        0.0059
      8 C         140.1011  139.8340  165.4087 C.ar    1  UNL1        0.0491
      9 C         139.1593  139.9093  164.2436 C.ar    1  UNL1        0.1298
     10 N         139.6251  139.5076  162.8756 N.ar    1  UNL1       -0.2308
     11 C         142.4300  137.8255  158.5683 C.ar    1  UNL1        0.1318
     12 C         141.1133  138.5238  158.7372 C.ar    1  UNL1        0.0344
     13 C         140.6475  138.9255  160.1053 C.ar    1  UNL1        0.0059
     14 C         141.4984  138.6289  161.3044 C.ar    1  UNL1        0.0370
     15 C         142.8152  137.9305  161.1354 C.ar    1  UNL1        0.1018
     16 N         143.2810  137.5288  159.7674 N.ar    1  UNL1       -0.2291
     17 C         142.9244  135.9749  156.8129 C.3     1  UNL1        0.1136
     18 N         142.8958  137.4237  157.2001 N.pl3   1  UNL1       -0.2897
     19 C         143.3330  138.4710  156.2192 C.3     1  UNL1        0.1136
     20 N         137.7518  140.3863  164.4466 N.pl3   1  UNL1       -0.3180
     21 H         137.2057  140.0127  165.1757 H       1  UNL1        0.1482
     22 C         137.1762  141.4326  163.5390 C.3     1  UNL1        0.0895
     23 C         137.9154  142.7180  163.3124 C.3     1  UNL1        0.0353
     24 C         138.3065  143.5741  164.4802 C.3     1  UNL1        0.0045
     25 C         139.0458  144.8595  164.2537 C.3     1  UNL1        0.0172
     26 C         139.3940  145.2887  162.8592 C.3     1  UNL1        0.0686
     27 N         139.0029  144.4325  161.6913 N.3     1  UNL1       -0.2974
     28 C         138.2636  143.1471  161.9178 C.3     1  UNL1        0.0702
     29 H         139.8641  144.1941  161.1995 H       1  UNL1        0.1232
@<TRIPOS>BOND
     1    17    18    1
     2    18    19    1
     3    18    11    1
     4    11    12   ar
     5    12    13   ar
     6    13    14   ar
     7    14     1    1
     8     1     2   ar
     9     2     3   ar
    10     3     4   ar
    11     4     5   ar
    12     5     6   ar
    13     6     7   ar
    14     7     8   ar
    15     8     9   ar
    16     9    20    1
    17    20    22    1
    18    23    22    1
    19    23    24    1
    20    24    25    1
    21    25    26    1
    22    26    27    1
    23    27    28    1
    24     9    10   ar
    25    14    15   ar
    26    15    16   ar
    27    16    11   ar
    28    10     1   ar
    29     8     3   ar
    30    28    23    1
    31    20    21    1
    32    27    29    1
@<TRIPOS>MOLECULE
*****
 29 32 0 0 0
SMALL
GASTEIGER

@<TRIPOS>ATOM
      1 C         139.4907  143.3033  160.5400 C.ar    1  UNL1        0.0857
      2 C         140.2325  143.8523  161.7224 C.ar    1  UNL1        0.0384
      3 C         140.0227  143.2557  163.0827 C.ar    1  UNL1        0.0855
      4 N         140.7646  143.8048  164.2650 N.ar    1  UNL1       -0.2437
      5 C         140.5547  143.2082  165.6252 C.ar    1  UNL1        0.0988
      6 C         139.6030  142.0625  165.8029 C.ar    1  UNL1        0.0208
      7 C         138.8611  141.5134  164.6205 C.ar    1  UNL1        0.0059
      8 C         139.0710  142.1100  163.2604 C.ar    1  UNL1        0.0491
      9 C         138.3291  141.5609  162.0779 C.ar    1  UNL1        0.1298
     10 N         138.5390  142.1575  160.7178 N.ar    1  UNL1       -0.2308
     11 C         140.1201  145.0930  156.4595 C.ar    1  UNL1        0.1318
     12 C         140.6274  145.8062  157.6777 C.ar    1  UNL1        0.0344
     13 C         140.4176  145.2097  159.0379 C.ar    1  UNL1        0.0059
     14 C         139.7005  143.8999  159.1798 C.ar    1  UNL1        0.0370
     15 C         139.1932  143.1867  157.9617 C.ar    1  UNL1        0.1018
     16 N         139.4030  143.7832  156.6015 N.ar    1  UNL1       -0.2291
     17 C         140.0324  147.1406  154.8628 C.3     1  UNL1        0.1136
     18 N         140.3300  145.6896  155.0993 N.pl3   1  UNL1       -0.2897
     19 C         140.8374  144.8352  153.9758 C.3     1  UNL1        0.1136
     20 N         137.3774  140.4152  162.2556 N.pl3   1  UNL1       -0.3180
     21 H         136.4813  140.5734  162.6313 H       1  UNL1        0.1482
     22 C         137.7910  139.0285  161.8608 C.3     1  UNL1        0.0895
     23 C         138.9239  138.3520  162.5742 C.3     1  UNL1        0.0353
     24 C         138.8527  138.1329  164.0563 C.3     1  UNL1        0.0045
     25 C         139.9856  137.4564  164.7697 C.3     1  UNL1        0.0172
     26 C         141.1897  136.9990  164.0010 C.3     1  UNL1        0.0686
     27 N         141.2609  137.2181  162.5187 N.3     1  UNL1       -0.2974
     28 C         140.1280  137.8946  161.8053 C.3     1  UNL1        0.0702
     29 H         141.3719  136.2992  162.0902 H       1  UNL1        0.1232
@<TRIPOS>BOND
     1    17    18    1
     2    18    19    1
     3    18    11    1
     4    11    12   ar
     5    12    13   ar
     6    13    14   ar
     7    14     1    1
     8     1     2   ar
     9     2     3   ar
    10     3     4   ar
    11     4     5   ar
    12     5     6   ar
    13     6     7   ar
    14     7     8   ar
    15     8     9   ar
    16     9    20    1
    17    20    22    1
    18    23    22    1
    19    23    24    1
    20    24    25    1
    21    25    26    1
    22    26    27    1
    23    27    28    1
    24     9    10   ar
    25    14    15   ar
    26    15    16   ar
    27    16    11   ar
    28    10     1   ar
    29     8     3   ar
    30    28    23    1
    31    20    21    1
    32    27    29    1
@<TRIPOS>MOLECULE
*****
 29 32 0 0 0
SMALL
GASTEIGER

@<TRIPOS>ATOM
      1 C         140.1916  142.0228  164.6595 C.ar    1  UNL1        0.0857
      2 C         140.8108  142.6105  165.8929 C.ar    1  UNL1        0.0384
      3 C         140.5396  141.9958  167.2341 C.ar    1  UNL1        0.0855
      4 N         141.1588  142.5834  168.4674 N.ar    1  UNL1       -0.2437
      5 C         140.8877  141.9687  169.8085 C.ar    1  UNL1        0.0988
      6 C         139.9973  140.7664  169.9163 C.ar    1  UNL1        0.0208
      7 C         139.3781  140.1788  168.6829 C.ar    1  UNL1        0.0059
      8 C         139.6492  140.7935  167.3418 C.ar    1  UNL1        0.0491
      9 C         139.0300  140.2058  166.1084 C.ar    1  UNL1        0.1298
     10 N         139.3012  140.8205  164.7673 N.ar    1  UNL1       -0.2308
     11 C         141.0050  143.8669  160.6362 C.ar    1  UNL1        0.1318
     12 C         140.7150  142.3991  160.7436 C.ar    1  UNL1        0.0344
     13 C         140.4438  141.7845  162.0847 C.ar    1  UNL1        0.0059
     14 C         140.4627  142.6375  163.3183 C.ar    1  UNL1        0.0370
     15 C         140.7528  144.1053  163.2109 C.ar    1  UNL1        0.1018
     16 N         141.0239  144.7200  161.8698 N.ar    1  UNL1       -0.2291
     17 C         140.3755  145.5590  158.7678 C.3     1  UNL1        0.1136
     18 N         141.2762  144.4816  159.2950 N.pl3   1  UNL1       -0.2897
     19 C         142.4481  144.0188  158.4810 C.3     1  UNL1        0.1136
     20 N         138.1396  139.0035  166.2161 N.pl3   1  UNL1       -0.3180
     21 H         137.2716  139.0733  166.6754 H       1  UNL1        0.1482
     22 C         138.5716  137.6948  165.6241 C.3     1  UNL1        0.0895
     23 C         139.4528  137.6752  164.4103 C.3     1  UNL1        0.0353
     24 C         140.9446  137.6736  164.5665 C.3     1  UNL1        0.0045
     25 C         141.8258  137.6539  163.3528 C.3     1  UNL1        0.0172
     26 C         141.2151  137.6359  161.9828 C.3     1  UNL1        0.0686
     27 N         139.7232  137.6375  161.8266 N.3     1  UNL1       -0.2974
     28 C         138.8421  137.6571  163.0403 C.3     1  UNL1        0.0702
     29 H         139.4814  136.7977  161.3007 H       1  UNL1        0.1232
@<TRIPOS>BOND
     1    17    18    1
     2    18    19    1
     3    18    11    1
     4    11    12   ar
     5    12    13   ar
     6    13    14   ar
     7    14     1    1
     8     1     2   ar
     9     2     3   ar
    10     3     4   ar
    11     4     5   ar
    12     5     6   ar
    13     6     7   ar
    14     7     8   ar
    15     8     9   ar
    16     9    20    1
    17    20    22    1
    18    23    22    1
    19    23    24    1
    20    24    25    1
    21    25    26    1
    22    26    27    1
    23    27    28    1
    24     9    10   ar
    25    14    15   ar
    26    15    16   ar
    27    16    11   ar
    28    10     1   ar
    29     8     3   ar
    30    28    23    1
    31    20    21    1
    32    27    29    1
@<TRIPOS>MOLECULE
*****
 29 32 0 0 0
SMALL
GASTEIGER

@<TRIPOS>ATOM
      1 C         141.0360  141.9262  160.6196 C.ar    1  UNL1        0.0857
      2 C         141.1088  143.0244  161.6386 C.ar    1  UNL1        0.0384
      3 C         139.9986  143.2008  162.6319 C.ar    1  UNL1        0.0855
      4 N         140.0715  144.2991  163.6509 N.ar    1  UNL1       -0.2437
      5 C         138.9613  144.4755  164.6441 C.ar    1  UNL1        0.0988
      6 C         137.7784  143.5536  164.6182 C.ar    1  UNL1        0.0208
      7 C         137.7055  142.4553  163.5992 C.ar    1  UNL1        0.0059
      8 C         138.8156  142.2790  162.6060 C.ar    1  UNL1        0.0491
      9 C         138.7428  141.1807  161.5869 C.ar    1  UNL1        0.1298
     10 N         139.8530  141.0043  160.5937 N.ar    1  UNL1       -0.2308
     11 C         144.3663  141.3969  157.6400 C.ar    1  UNL1        0.1318
     12 C         144.2380  142.6833  158.4006 C.ar    1  UNL1        0.0344
     13 C         143.1279  142.8597  159.3938 C.ar    1  UNL1        0.0059
     14 C         142.1461  141.7498  159.6264 C.ar    1  UNL1        0.0370
     15 C         142.2745  140.4633  158.8657 C.ar    1  UNL1        0.1018
     16 N         143.3846  140.2869  157.8725 N.ar    1  UNL1       -0.2291
     17 C         145.4326  140.0860  155.6664 C.3     1  UNL1        0.1136
     18 N         145.4765  141.2204  156.6467 N.pl3   1  UNL1       -0.2897
     19 C         146.6306  142.1785  156.6338 C.3     1  UNL1        0.1136
     20 N         137.5598  140.2588  161.5610 N.pl3   1  UNL1       -0.3180
     21 H         136.6535  140.6243  161.4418 H       1  UNL1        0.1482
     22 C         137.7578  138.7801  161.7168 C.3     1  UNL1        0.0895
     23 C         138.8731  138.2588  162.5736 C.3     1  UNL1        0.0353
     24 C         138.7554  138.3054  164.0682 C.3     1  UNL1        0.0045
     25 C         139.8708  137.7842  164.9251 C.3     1  UNL1        0.0172
     26 C         141.1039  137.2163  164.2873 C.3     1  UNL1        0.0686
     27 N         141.2217  137.1696  162.7926 N.3     1  UNL1       -0.2974
     28 C         140.1063  137.6909  161.9358 C.3     1  UNL1        0.0702
     29 H         141.3558  136.1910  162.5382 H       1  UNL1        0.1232
@<TRIPOS>BOND
     1    17    18    1
     2    18    19    1
     3    18    11    1
     4    11    12   ar
     5    12    13   ar
     6    13    14   ar
     7    14     1    1
     8     1     2   ar
     9     2     3   ar
    10     3     4   ar
    11     4     5   ar
    12     5     6   ar
    13     6     7   ar
    14     7     8   ar
    15     8     9   ar
    16     9    20    1
    17    20    22    1
    18    23    22    1
    19    23    24    1
    20    24    25    1
    21    25    26    1
    22    26    27    1
    23    27    28    1
    24     9    10   ar
    25    14    15   ar
    26    15    16   ar
    27    16    11   ar
    28    10     1   ar
    29     8     3   ar
    30    28    23    1
    31    20    21    1
    32    27    29    1
