@<TRIPOS>MOLECULE
*****
 38 43 0 0 0
SMALL
GASTEIGER

@<TRIPOS>ATOM
      1 N         136.8161  141.3358  163.2745 N.pl3   1  UNL1       -0.3133
      2 C         138.1966  141.7045  163.7309 C.2     1  UNL1        0.2773
      3 N         139.2734  142.3115  162.8813 N.2     1  UNL1       -0.2161
      4 C         140.4850  142.5131  163.7424 C.3     1  UNL1        0.1721
      5 C         140.1569  142.0307  165.1243 C.3     1  UNL1        0.2392
      6 O         138.7426  141.5310  165.1172 O.2     1  UNL1       -0.4474
      7 C         140.6670  142.9544  162.3203 C.ar    1  UNL1        0.0411
      8 C         139.5393  142.8138  161.3413 C.ar    1  UNL1        0.0157
      9 C         139.7212  143.2551  159.9193 C.ar    1  UNL1        0.0505
     10 C         141.0309  143.8369  159.4763 C.ar    1  UNL1        0.0178
     11 C         142.1585  143.9775  160.4554 C.ar    1  UNL1        0.0385
     12 C         141.9766  143.5363  161.8773 C.ar    1  UNL1        0.1436
     13 O         143.1043  143.6769  162.8564 O.3     1  UNL1       -0.4524
     14 C         142.9223  143.2356  164.2784 C.ar    1  UNL1        0.1625
     15 C         144.0500  143.3762  165.2575 C.ar    1  UNL1        0.1359
     16 N         143.8680  142.9349  166.6795 N.ar    1  UNL1       -0.2409
     17 C         142.5584  142.3531  167.1225 C.ar    1  UNL1        0.0794
     18 C         141.4307  142.2125  166.1435 C.ar    1  UNL1        0.0199
     19 C         141.6127  142.6537  164.7214 C.ar    1  UNL1        0.0430
     20 H         136.5496  141.4890  162.3392 H       1  UNL1        0.1466
     21 H         136.1766  140.9406  163.9102 H       1  UNL1        0.1466
     22 C         142.3764  141.9118  168.5446 C.2     1  UNL1        0.0207
     23 C         142.7210  140.5077  168.9441 C.2     1  UNL1       -0.0239
     24 C         142.5390  140.0664  170.3661 C.3     1  UNL1        0.0579
     25 C         142.0125  141.0293  171.3886 C.3     1  UNL1        0.1473
     26 O         141.6680  142.4335  170.9891 O.3     1  UNL1       -0.3486
     27 C         141.8500  142.8747  169.5671 C.3     1  UNL1        0.1698
     28 N         138.5936  143.1144  158.9402 N.am    1  UNL1       -0.2791
     29 C         138.5041  141.8965  158.0691 C.2     1  UNL1        0.2672
     30 O         139.5423  140.8193  158.1770 O.2     1  UNL1       -0.2682
     31 H         137.9122  143.8215  158.8694 H       1  UNL1        0.1552
     32 C         137.3764  141.7559  157.0900 C.ar    1  UNL1        0.1348
     33 C         137.1720  142.7945  156.0272 C.ar    1  UNL1        0.0246
     34 C         136.0444  142.6539  155.0482 C.ar    1  UNL1        0.0147
     35 C         135.1210  141.4747  155.1320 C.ar    1  UNL1        0.0768
     36 CL        133.9933  141.3341  154.1529 Cl      1  UNL1       -0.0806
     37 C         135.3254  140.4362  156.1948 C.ar    1  UNL1        0.1103
     38 N         136.4530  140.5768  157.1738 N.ar    1  UNL1       -0.2384
@<TRIPOS>BOND
     1     1     2    1
     2     2     3    2
     3     3     4    1
     4     4     5    1
     5     5     6    1
     6     4     7    1
     7     7     8   ar
     8     8     9   ar
     9     9    28    1
    10    28    29   am
    11    29    30    2
    12    29    32    1
    13    32    33   ar
    14    33    34   ar
    15    34    35   ar
    16    35    36    1
    17    35    37   ar
    18    37    38   ar
    19     9    10   ar
    20    10    11   ar
    21    11    12   ar
    22    12    13    1
    23    13    14    1
    24    14    15   ar
    25    15    16   ar
    26    16    17   ar
    27    17    22    1
    28    22    23    2
    29    23    24    1
    30    24    25    1
    31    25    26    1
    32    26    27    1
    33    17    18   ar
    34    18    19   ar
    35     6     2    1
    36    12     7   ar
    37    19    14   ar
    38    19     4    1
    39    38    32   ar
    40    27    22    1
    41     1    20    1
    42     1    21    1
    43    28    31    1
@<TRIPOS>MOLECULE
*****
 38 43 0 0 0
SMALL
GASTEIGER

@<TRIPOS>ATOM
      1 N         145.5397  142.2379  162.7605 N.pl3   1  UNL1       -0.3133
      2 C         144.2248  141.7000  163.2418 C.2     1  UNL1        0.2773
      3 N         143.2677  140.8659  162.4429 N.2     1  UNL1       -0.2161
      4 C         142.0875  140.5521  163.3139 C.3     1  UNL1        0.1721
      5 C         142.3151  141.1924  164.6512 C.3     1  UNL1        0.2392
      6 O         143.6360  141.9018  164.6066 O.2     1  UNL1       -0.4474
      7 C         141.9986  139.9716  161.9337 C.ar    1  UNL1        0.0411
      8 C         143.1072  140.2026  160.9500 C.ar    1  UNL1        0.0157
      9 C         143.0183  139.6221  159.5698 C.ar    1  UNL1        0.0505
     10 C         141.8208  138.8106  159.1732 C.ar    1  UNL1        0.0178
     11 C         140.7121  138.5797  160.1568 C.ar    1  UNL1        0.0385
     12 C         140.8010  139.1601  161.5370 C.ar    1  UNL1        0.1436
     13 O         139.6924  138.9291  162.5207 O.3     1  UNL1       -0.4524
     14 C         139.7813  139.5096  163.9009 C.ar    1  UNL1        0.1625
     15 C         138.6727  139.2787  164.8846 C.ar    1  UNL1        0.1359
     16 N         138.7616  139.8592  166.2648 N.ar    1  UNL1       -0.2409
     17 C         139.9592  140.6707  166.6615 C.ar    1  UNL1        0.0794
     18 C         141.0678  140.9017  165.6778 C.ar    1  UNL1        0.0199
     19 C         140.9789  140.3211  164.2976 C.ar    1  UNL1        0.0430
     20 H         145.8418  142.0505  161.8424 H       1  UNL1        0.1466
     21 H         146.1006  142.7784  163.3626 H       1  UNL1        0.1466
     22 C         140.0481  141.2512  168.0417 C.2     1  UNL1        0.0207
     23 C         140.5462  142.6528  168.2353 C.2     1  UNL1       -0.0239
     24 C         140.6351  143.2333  169.6155 C.3     1  UNL1        0.0579
     25 C         140.2259  142.4122  170.8022 C.3     1  UNL1        0.1473
     26 O         139.7279  141.0106  170.6087 O.3     1  UNL1       -0.3486
     27 C         139.6389  140.4301  169.2285 C.3     1  UNL1        0.1698
     28 N         144.1269  139.8531  158.5861 N.am    1  UNL1       -0.2791
     29 C         144.1838  141.1338  157.8072 C.2     1  UNL1        0.2672
     30 O         143.1321  142.1836  158.0121 O.2     1  UNL1       -0.2682
     31 H         144.8172  139.1641  158.4517 H       1  UNL1        0.1552
     32 C         145.2925  141.3648  156.8236 C.ar    1  UNL1        0.1348
     33 C         145.3044  140.6239  155.5194 C.ar    1  UNL1        0.0246
     34 C         146.4130  140.8549  154.5358 C.ar    1  UNL1        0.0147
     35 C         147.5097  141.8268  154.8563 C.ar    1  UNL1        0.0768
     36 CL        148.6183  142.0578  153.8727 Cl      1  UNL1       -0.0806
     37 C         147.4978  142.5677  156.1605 C.ar    1  UNL1        0.1103
     38 N         146.3892  142.3367  157.1442 N.ar    1  UNL1       -0.2384
@<TRIPOS>BOND
     1     1     2    1
     2     2     3    2
     3     3     4    1
     4     4     5    1
     5     5     6    1
     6     4     7    1
     7     7     8   ar
     8     8     9   ar
     9     9    28    1
    10    28    29   am
    11    29    30    2
    12    29    32    1
    13    32    33   ar
    14    33    34   ar
    15    34    35   ar
    16    35    36    1
    17    35    37   ar
    18    37    38   ar
    19     9    10   ar
    20    10    11   ar
    21    11    12   ar
    22    12    13    1
    23    13    14    1
    24    14    15   ar
    25    15    16   ar
    26    16    17   ar
    27    17    22    1
    28    22    23    2
    29    23    24    1
    30    24    25    1
    31    25    26    1
    32    26    27    1
    33    17    18   ar
    34    18    19   ar
    35     6     2    1
    36    12     7   ar
    37    19    14   ar
    38    19     4    1
    39    38    32   ar
    40    27    22    1
    41     1    20    1
    42     1    21    1
    43    28    31    1
@<TRIPOS>MOLECULE
*****
 38 43 0 0 0
SMALL
GASTEIGER

@<TRIPOS>ATOM
      1 N         140.2559  146.2346  162.3955 N.pl3   1  UNL1       -0.3133
      2 C         140.0431  144.8886  163.0224 C.2     1  UNL1        0.2773
      3 N         139.6223  143.6393  162.3069 N.2     1  UNL1       -0.2161
      4 C         139.5328  142.5341  163.3172 C.3     1  UNL1        0.1721
      5 C         139.8983  143.1005  164.6572 C.3     1  UNL1        0.2392
      6 O         140.2136  144.5556  164.4750 O.2     1  UNL1       -0.4474
      7 C         139.1915  142.1116  161.9189 C.ar    1  UNL1        0.0411
      8 C         139.2373  143.1108  160.8012 C.ar    1  UNL1        0.0157
      9 C         138.8961  142.6883  159.4029 C.ar    1  UNL1        0.0505
     10 C         138.5091  141.2665  159.1225 C.ar    1  UNL1        0.0178
     11 C         138.4633  140.2673  160.2403 C.ar    1  UNL1        0.0385
     12 C         138.8045  140.6898  161.6384 C.ar    1  UNL1        0.1436
     13 O         138.7587  139.6905  162.7562 O.3     1  UNL1       -0.4524
     14 C         139.1000  140.1131  164.1544 C.ar    1  UNL1        0.1625
     15 C         139.0542  139.1138  165.2722 C.ar    1  UNL1        0.1359
     16 N         139.3954  139.5364  166.6704 N.ar    1  UNL1       -0.2409
     17 C         139.7825  140.9582  166.9509 C.ar    1  UNL1        0.0794
     18 C         139.8282  141.9574  165.8331 C.ar    1  UNL1        0.0199
     19 C         139.4870  141.5349  164.4349 C.ar    1  UNL1        0.0430
     20 H         140.1180  146.3544  161.4281 H       1  UNL1        0.1466
     21 H         140.5335  146.9982  162.9514 H       1  UNL1        0.1466
     22 C         140.1237  141.3807  168.3491 C.2     1  UNL1        0.0207
     23 C         140.8139  142.6907  168.5894 C.2     1  UNL1       -0.0239
     24 C         141.1551  143.1132  169.9876 C.3     1  UNL1        0.0579
     25 C         140.8062  142.2258  171.1455 C.3     1  UNL1        0.1473
     26 O         140.1160  140.9159  170.9052 O.3     1  UNL1       -0.3486
     27 C         139.7748  140.4934  169.5071 C.3     1  UNL1        0.1698
     28 N         138.9419  143.6875  158.2852 N.am    1  UNL1       -0.2791
     29 C         140.2619  144.1172  157.7169 C.2     1  UNL1        0.2672
     30 O         141.5362  143.5477  158.2664 O.2     1  UNL1       -0.2682
     31 H         138.1055  144.0614  157.9246 H       1  UNL1        0.1552
     32 C         140.3077  145.1165  156.5991 C.ar    1  UNL1        0.1348
     33 C         141.0888  144.8145  155.3547 C.ar    1  UNL1        0.0246
     34 C         141.1346  145.8137  154.2370 C.ar    1  UNL1        0.0147
     35 C         140.3993  147.1150  154.3636 C.ar    1  UNL1        0.0768
     36 CL        140.4450  148.1142  153.2459 Cl      1  UNL1       -0.0806
     37 C         139.6181  147.4170  155.6081 C.ar    1  UNL1        0.1103
     38 N         139.5723  146.4177  156.7258 N.ar    1  UNL1       -0.2384
@<TRIPOS>BOND
     1     1     2    1
     2     2     3    2
     3     3     4    1
     4     4     5    1
     5     5     6    1
     6     4     7    1
     7     7     8   ar
     8     8     9   ar
     9     9    28    1
    10    28    29   am
    11    29    30    2
    12    29    32    1
    13    32    33   ar
    14    33    34   ar
    15    34    35   ar
    16    35    36    1
    17    35    37   ar
    18    37    38   ar
    19     9    10   ar
    20    10    11   ar
    21    11    12   ar
    22    12    13    1
    23    13    14    1
    24    14    15   ar
    25    15    16   ar
    26    16    17   ar
    27    17    22    1
    28    22    23    2
    29    23    24    1
    30    24    25    1
    31    25    26    1
    32    26    27    1
    33    17    18   ar
    34    18    19   ar
    35     6     2    1
    36    12     7   ar
    37    19    14   ar
    38    19     4    1
    39    38    32   ar
    40    27    22    1
    41     1    20    1
    42     1    21    1
    43    28    31    1
@<TRIPOS>MOLECULE
*****
 38 43 0 0 0
SMALL
GASTEIGER

@<TRIPOS>ATOM
      1 N         140.3491  146.4440  162.4663 N.pl3   1  UNL1       -0.3133
      2 C         140.9283  145.1848  163.0399 C.2     1  UNL1        0.2773
      3 N         141.6784  144.1325  162.2784 N.2     1  UNL1       -0.2161
      4 C         142.0728  143.0542  163.2436 C.3     1  UNL1        0.1721
      5 C         141.5665  143.4402  164.6019 C.3     1  UNL1        0.2392
      6 O         140.8592  144.7569  164.4759 O.2     1  UNL1       -0.4474
      7 C         142.5158  142.8020  161.8329 C.ar    1  UNL1        0.0411
      8 C         142.1926  143.7953  160.7564 C.ar    1  UNL1        0.0157
      9 C         142.6355  143.5431  159.3456 C.ar    1  UNL1        0.0505
     10 C         143.4017  142.2977  159.0115 C.ar    1  UNL1        0.0178
     11 C         143.7249  141.3044  160.0880 C.ar    1  UNL1        0.0385
     12 C         143.2819  141.5565  161.4986 C.ar    1  UNL1        0.1436
     13 O         143.6051  140.5633  162.5751 O.3     1  UNL1       -0.4524
     14 C         143.1622  140.8154  163.9859 C.ar    1  UNL1        0.1625
     15 C         143.4854  139.8222  165.0624 C.ar    1  UNL1        0.1359
     16 N         143.0424  140.0743  166.4732 N.ar    1  UNL1       -0.2409
     17 C         142.2762  141.3198  166.8074 C.ar    1  UNL1        0.0794
     18 C         141.9530  142.3131  165.7309 C.ar    1  UNL1        0.0199
     19 C         142.3960  142.0609  164.3202 C.ar    1  UNL1        0.0430
     20 H         140.4468  146.6378  161.5060 H       1  UNL1        0.1466
     21 H         139.8713  147.0765  163.0500 H       1  UNL1        0.1466
     22 C         141.8333  141.5720  168.2182 C.2     1  UNL1        0.0207
     23 C         140.7594  142.5813  168.4980 C.2     1  UNL1       -0.0239
     24 C         140.3165  142.8335  169.9088 C.3     1  UNL1        0.0579
     25 C         140.9473  142.0764  171.0396 C.3     1  UNL1        0.1473
     26 O         142.0211  141.0672  170.7597 O.3     1  UNL1       -0.3486
     27 C         142.4641  140.8150  169.3491 C.3     1  UNL1        0.1698
     28 N         142.3123  144.5364  158.2691 N.am    1  UNL1       -0.2791
     29 C         140.8928  144.7214  157.8209 C.2     1  UNL1        0.2672
     30 O         139.7965  143.9130  158.4492 O.2     1  UNL1       -0.2682
     31 H         143.0319  145.0670  157.8568 H       1  UNL1        0.1552
     32 C         140.5696  145.7147  156.7444 C.ar    1  UNL1        0.1348
     33 C         141.2690  145.6390  155.4196 C.ar    1  UNL1        0.0246
     34 C         140.9458  146.6323  154.3431 C.ar    1  UNL1        0.0147
     35 C         139.9232  147.7013  154.5914 C.ar    1  UNL1        0.0768
     36 CL        139.6000  148.6946  153.5149 Cl      1  UNL1       -0.0806
     37 C         139.2238  147.7770  155.9162 C.ar    1  UNL1        0.1103
     38 N         139.5470  146.7837  156.9927 N.ar    1  UNL1       -0.2384
@<TRIPOS>BOND
     1     1     2    1
     2     2     3    2
     3     3     4    1
     4     4     5    1
     5     5     6    1
     6     4     7    1
     7     7     8   ar
     8     8     9   ar
     9     9    28    1
    10    28    29   am
    11    29    30    2
    12    29    32    1
    13    32    33   ar
    14    33    34   ar
    15    34    35   ar
    16    35    36    1
    17    35    37   ar
    18    37    38   ar
    19     9    10   ar
    20    10    11   ar
    21    11    12   ar
    22    12    13    1
    23    13    14    1
    24    14    15   ar
    25    15    16   ar
    26    16    17   ar
    27    17    22    1
    28    22    23    2
    29    23    24    1
    30    24    25    1
    31    25    26    1
    32    26    27    1
    33    17    18   ar
    34    18    19   ar
    35     6     2    1
    36    12     7   ar
    37    19    14   ar
    38    19     4    1
    39    38    32   ar
    40    27    22    1
    41     1    20    1
    42     1    21    1
    43    28    31    1
@<TRIPOS>MOLECULE
*****
 38 43 0 0 0
SMALL
GASTEIGER

@<TRIPOS>ATOM
      1 N         142.1715  137.3259  162.5038 N.pl3   1  UNL1       -0.3133
      2 C         141.5848  138.6067  163.0188 C.2     1  UNL1        0.2773
      3 N         140.6471  139.5095  162.2733 N.2     1  UNL1       -0.2161
      4 C         140.3155  140.6704  163.1635 C.3     1  UNL1        0.1721
      5 C         141.0481  140.4850  164.4591 C.3     1  UNL1        0.2392
      6 O         141.8326  139.2096  164.3697 O.2     1  UNL1       -0.4474
      7 C         139.6481  140.7208  161.8210 C.ar    1  UNL1        0.0411
      8 C         139.8861  139.6261  160.8235 C.ar    1  UNL1        0.0157
      9 C         139.2188  139.6766  159.4811 C.ar    1  UNL1        0.0505
     10 C         138.3135  140.8217  159.1362 C.ar    1  UNL1        0.0178
     11 C         138.0755  141.9164  160.1337 C.ar    1  UNL1        0.0385
     12 C         138.7428  141.8659  161.4760 C.ar    1  UNL1        0.1436
     13 O         138.5047  142.9606  162.4735 O.3     1  UNL1       -0.4524
     14 C         139.1721  142.9102  163.8160 C.ar    1  UNL1        0.1625
     15 C         138.9341  144.0049  164.8134 C.ar    1  UNL1        0.1359
     16 N         139.6014  143.9544  166.1559 N.ar    1  UNL1       -0.2409
     17 C         140.5068  142.8093  166.5009 C.ar    1  UNL1        0.0794
     18 C         140.7448  141.7146  165.5034 C.ar    1  UNL1        0.0199
     19 C         140.0774  141.7651  164.1609 C.ar    1  UNL1        0.0430
     20 H         141.9476  137.0109  161.5983 H       1  UNL1        0.1466
     21 H         142.7805  136.8002  163.0712 H       1  UNL1        0.1466
     22 C         141.1741  142.7589  167.8433 C.2     1  UNL1        0.0207
     23 C         142.5621  142.2045  167.9705 C.2     1  UNL1       -0.0239
     24 C         143.2294  142.1541  169.3130 C.3     1  UNL1        0.0579
     25 C         142.5088  142.6580  170.5281 C.3     1  UNL1        0.1473
     26 O         141.1208  143.2123  170.4009 O.3     1  UNL1       -0.3486
     27 C         140.4535  143.2627  169.0585 C.3     1  UNL1        0.1698
     28 N         139.4568  138.5819  158.4836 N.am    1  UNL1       -0.2791
     29 C         140.7539  138.5206  157.7325 C.2     1  UNL1        0.2672
     30 O         141.8128  139.5539  157.9789 O.2     1  UNL1       -0.2682
     31 H         138.7618  137.9037  158.3219 H       1  UNL1        0.1552
     32 C         140.9919  137.4259  156.7350 C.ar    1  UNL1        0.1348
     33 C         140.0391  137.2318  155.5929 C.ar    1  UNL1        0.0246
     34 C         140.2771  136.1371  154.5954 C.ar    1  UNL1        0.0147
     35 C         141.4679  135.2365  154.7401 C.ar    1  UNL1        0.0768
     36 CL        141.7059  134.1418  153.7426 Cl      1  UNL1       -0.0806
     37 C         142.4207  135.4306  155.8822 C.ar    1  UNL1        0.1103
     38 N         142.1827  136.5253  156.8797 N.ar    1  UNL1       -0.2384
@<TRIPOS>BOND
     1     1     2    1
     2     2     3    2
     3     3     4    1
     4     4     5    1
     5     5     6    1
     6     4     7    1
     7     7     8   ar
     8     8     9   ar
     9     9    28    1
    10    28    29   am
    11    29    30    2
    12    29    32    1
    13    32    33   ar
    14    33    34   ar
    15    34    35   ar
    16    35    36    1
    17    35    37   ar
    18    37    38   ar
    19     9    10   ar
    20    10    11   ar
    21    11    12   ar
    22    12    13    1
    23    13    14    1
    24    14    15   ar
    25    15    16   ar
    26    16    17   ar
    27    17    22    1
    28    22    23    2
    29    23    24    1
    30    24    25    1
    31    25    26    1
    32    26    27    1
    33    17    18   ar
    34    18    19   ar
    35     6     2    1
    36    12     7   ar
    37    19    14   ar
    38    19     4    1
    39    38    32   ar
    40    27    22    1
    41     1    20    1
    42     1    21    1
    43    28    31    1
@<TRIPOS>MOLECULE
*****
 38 43 0 0 0
SMALL
GASTEIGER

@<TRIPOS>ATOM
      1 N         137.2842  141.0096  162.3094 N.pl3   1  UNL1       -0.3133
      2 C         138.5135  140.5454  163.0328 C.2     1  UNL1        0.2773
      3 N         139.7056  139.8819  162.4095 N.2     1  UNL1       -0.2161
      4 C         140.6954  139.5897  163.4981 C.3     1  UNL1        0.1721
      5 C         140.1150  140.0726  164.7942 C.3     1  UNL1        0.2392
      6 O         138.7665  140.6633  164.5066 O.2     1  UNL1       -0.4474
      7 C         141.1442  139.1579  162.1334 C.ar    1  UNL1        0.0411
      8 C         140.2573  139.3855  160.9454 C.ar    1  UNL1        0.0157
      9 C         140.7060  138.9538  159.5807 C.ar    1  UNL1        0.0505
     10 C         142.0417  138.2944  159.4042 C.ar    1  UNL1        0.0178
     11 C         142.9286  138.0668  160.5923 C.ar    1  UNL1        0.0385
     12 C         142.4799  138.4985  161.9569 C.ar    1  UNL1        0.1436
     13 O         143.3668  138.2709  163.1449 O.3     1  UNL1       -0.4524
     14 C         142.9180  138.7027  164.5096 C.ar    1  UNL1        0.1625
     15 C         143.8049  138.4751  165.6976 C.ar    1  UNL1        0.1359
     16 N         143.3562  138.9068  167.0623 N.ar    1  UNL1       -0.2409
     17 C         142.0205  139.5662  167.2389 C.ar    1  UNL1        0.0794
     18 C         141.1336  139.7938  166.0508 C.ar    1  UNL1        0.0199
     19 C         141.5824  139.3621  164.6861 C.ar    1  UNL1        0.0430
     20 H         137.2107  140.8874  161.3352 H       1  UNL1        0.1466
     21 H         136.5509  141.4364  162.8086 H       1  UNL1        0.1466
     22 C         141.5718  139.9980  168.6035 C.2     1  UNL1        0.0207
     23 C         140.1126  140.2054  168.8825 C.2     1  UNL1       -0.0239
     24 C         139.6639  140.6371  170.2471 C.3     1  UNL1        0.0579
     25 C         140.6743  140.8615  171.3327 C.3     1  UNL1        0.1473
     26 O         142.1334  140.6541  171.0537 O.3     1  UNL1       -0.3486
     27 C         142.5822  140.2224  169.6892 C.3     1  UNL1        0.1698
     28 N         139.8191  139.1814  158.3926 N.am    1  UNL1       -0.2791
     29 C         138.9758  140.4194  158.3124 C.2     1  UNL1        0.2672
     30 O         139.0195  141.4297  159.4203 O.2     1  UNL1       -0.2682
     31 H         139.7904  138.5183  157.6655 H       1  UNL1        0.1552
     32 C         138.0889  140.6470  157.1243 C.ar    1  UNL1        0.1348
     33 C         137.3387  141.9384  156.9849 C.ar    1  UNL1        0.0246
     34 C         136.4518  142.1660  155.7968 C.ar    1  UNL1        0.0147
     35 C         136.3151  141.1022  154.7482 C.ar    1  UNL1        0.0768
     36 CL        135.4281  141.3298  153.5601 Cl      1  UNL1       -0.0806
     37 C         137.0652  139.8108  154.8876 C.ar    1  UNL1        0.1103
     38 N         137.9522  139.5832  156.0757 N.ar    1  UNL1       -0.2384
@<TRIPOS>BOND
     1     1     2    1
     2     2     3    2
     3     3     4    1
     4     4     5    1
     5     5     6    1
     6     4     7    1
     7     7     8   ar
     8     8     9   ar
     9     9    28    1
    10    28    29   am
    11    29    30    2
    12    29    32    1
    13    32    33   ar
    14    33    34   ar
    15    34    35   ar
    16    35    36    1
    17    35    37   ar
    18    37    38   ar
    19     9    10   ar
    20    10    11   ar
    21    11    12   ar
    22    12    13    1
    23    13    14    1
    24    14    15   ar
    25    15    16   ar
    26    16    17   ar
    27    17    22    1
    28    22    23    2
    29    23    24    1
    30    24    25    1
    31    25    26    1
    32    26    27    1
    33    17    18   ar
    34    18    19   ar
    35     6     2    1
    36    12     7   ar
    37    19    14   ar
    38    19     4    1
    39    38    32   ar
    40    27    22    1
    41     1    20    1
    42     1    21    1
    43    28    31    1
@<TRIPOS>MOLECULE
*****
 38 43 0 0 0
SMALL
GASTEIGER

@<TRIPOS>ATOM
      1 N         140.3005  145.6218  163.4083 N.pl3   1  UNL1       -0.3133
      2 C         140.3411  145.2188  161.9641 C.2     1  UNL1        0.2773
      3 N         140.6218  143.8414  161.4406 N.2     1  UNL1       -0.2161
      4 C         140.5623  143.8937  159.9427 C.3     1  UNL1        0.1721
      5 C         140.2449  145.3034  159.5404 C.3     1  UNL1        0.2392
      6 O         140.1082  146.1223  160.7896 O.2     1  UNL1       -0.4474
      7 C         140.8738  142.5338  160.4938 C.ar    1  UNL1        0.0411
      8 C         140.9658  142.3286  161.9769 C.ar    1  UNL1        0.0157
      9 C         141.2772  140.9687  162.5280 C.ar    1  UNL1        0.0505
     10 C         141.4966  139.8140  161.5960 C.ar    1  UNL1        0.0178
     11 C         141.4046  140.0192  160.1130 C.ar    1  UNL1        0.0385
     12 C         141.0932  141.3790  159.5619 C.ar    1  UNL1        0.1436
     13 O         141.0012  141.5842  158.0789 O.3     1  UNL1       -0.4524
     14 C         140.6898  142.9441  157.5278 C.ar    1  UNL1        0.1625
     15 C         140.5978  143.1493  156.0447 C.ar    1  UNL1        0.1359
     16 N         140.2863  144.5092  155.4936 N.ar    1  UNL1       -0.2409
     17 C         140.0669  145.6639  156.4255 C.ar    1  UNL1        0.0794
     18 C         140.1589  145.4587  157.9086 C.ar    1  UNL1        0.0199
     19 C         140.4703  144.0988  158.4597 C.ar    1  UNL1        0.0430
     20 H         140.4676  144.9528  164.1110 H       1  UNL1        0.1466
     21 H         140.1068  146.5554  163.6536 H       1  UNL1        0.1466
     22 C         139.7555  147.0238  155.8744 C.2     1  UNL1        0.0207
     23 C         138.8498  147.9501  156.6305 C.2     1  UNL1       -0.0239
     24 C         138.5383  149.3100  156.0794 C.3     1  UNL1        0.0579
     25 C         139.1327  149.7436  154.7722 C.3     1  UNL1        0.1473
     26 O         140.0384  148.8173  154.0161 O.3     1  UNL1       -0.3486
     27 C         140.3498  147.4575  154.5672 C.3     1  UNL1        0.1698
     28 N         141.3692  140.7635  164.0110 N.am    1  UNL1       -0.2791
     29 C         142.5835  141.2289  164.7587 C.2     1  UNL1        0.2672
     30 O         143.7057  141.8996  164.0233 O.2     1  UNL1       -0.2682
     31 H         140.6326  140.3233  164.4937 H       1  UNL1        0.1552
     32 C         142.6755  141.0237  166.2417 C.ar    1  UNL1        0.1348
     33 C         142.9355  142.1921  167.1458 C.ar    1  UNL1        0.0246
     34 C         143.0275  141.9869  168.6288 C.ar    1  UNL1        0.0147
     35 C         142.8595  140.6134  169.2078 C.ar    1  UNL1        0.0768
     36 CL        142.9515  140.4082  170.6908 Cl      1  UNL1       -0.0806
     37 C         142.5995  139.4450  168.3037 C.ar    1  UNL1        0.1103
     38 N         142.5075  139.6502  166.8207 N.ar    1  UNL1       -0.2384
@<TRIPOS>BOND
     1     1     2    1
     2     2     3    2
     3     3     4    1
     4     4     5    1
     5     5     6    1
     6     4     7    1
     7     7     8   ar
     8     8     9   ar
     9     9    28    1
    10    28    29   am
    11    29    30    2
    12    29    32    1
    13    32    33   ar
    14    33    34   ar
    15    34    35   ar
    16    35    36    1
    17    35    37   ar
    18    37    38   ar
    19     9    10   ar
    20    10    11   ar
    21    11    12   ar
    22    12    13    1
    23    13    14    1
    24    14    15   ar
    25    15    16   ar
    26    16    17   ar
    27    17    22    1
    28    22    23    2
    29    23    24    1
    30    24    25    1
    31    25    26    1
    32    26    27    1
    33    17    18   ar
    34    18    19   ar
    35     6     2    1
    36    12     7   ar
    37    19    14   ar
    38    19     4    1
    39    38    32   ar
    40    27    22    1
    41     1    20    1
    42     1    21    1
    43    28    31    1
@<TRIPOS>MOLECULE
*****
 38 43 0 0 0
SMALL
GASTEIGER

@<TRIPOS>ATOM
      1 N         143.8040  143.8466  162.4064 N.pl3   1  UNL1       -0.3133
      2 C         143.7086  142.8191  161.3178 C.2     1  UNL1        0.2773
      3 N         142.8205  141.6103  161.3217 N.2     1  UNL1       -0.2161
      4 C         143.0476  140.8641  160.0404 C.3     1  UNL1        0.1721
      5 C         144.0761  141.6117  159.2446 C.3     1  UNL1        0.2392
      6 O         144.4846  142.8200  160.0341 O.2     1  UNL1       -0.4474
      7 C         142.0347  140.2279  160.9456 C.ar    1  UNL1        0.0411
      8 C         141.7035  140.8625  162.2638 C.ar    1  UNL1        0.0157
      9 C         140.6907  140.2263  163.1690 C.ar    1  UNL1        0.0505
     10 C         140.0090  138.9557  162.7560 C.ar    1  UNL1        0.0178
     11 C         140.3402  138.3211  161.4378 C.ar    1  UNL1        0.0385
     12 C         141.3530  138.9572  160.5326 C.ar    1  UNL1        0.1436
     13 O         141.6842  138.3226  159.2145 O.3     1  UNL1       -0.4524
     14 C         142.6971  138.9588  158.3092 C.ar    1  UNL1        0.1625
     15 C         143.0283  138.3242  156.9911 C.ar    1  UNL1        0.1359
     16 N         144.0412  138.9604  156.0858 N.ar    1  UNL1       -0.2409
     17 C         144.7229  140.2311  156.4988 C.ar    1  UNL1        0.0794
     18 C         144.3917  140.8657  157.8170 C.ar    1  UNL1        0.0199
     19 C         143.3788  140.2295  158.7222 C.ar    1  UNL1        0.0430
     20 H         143.2507  143.7588  163.2160 H       1  UNL1        0.1466
     21 H         144.4199  144.6087  162.3114 H       1  UNL1        0.1466
     22 C         145.7358  140.8673  155.5936 C.2     1  UNL1        0.0207
     23 C         146.7397  141.8318  156.1520 C.2     1  UNL1       -0.0239
     24 C         147.7525  142.4680  155.2467 C.3     1  UNL1        0.0579
     25 C         147.7615  142.1395  153.7832 C.3     1  UNL1        0.1473
     26 O         146.7576  141.1750  153.2249 O.3     1  UNL1       -0.3486
     27 C         145.7447  140.5389  154.1300 C.3     1  UNL1        0.1698
     28 N         140.3595  140.8609  164.4872 N.am    1  UNL1       -0.2791
     29 C         140.8834  140.2638  165.7597 C.2     1  UNL1        0.2672
     30 O         141.7384  139.0323  165.7140 O.2     1  UNL1       -0.2682
     31 H         139.7983  141.6692  164.5172 H       1  UNL1        0.1552
     32 C         140.5522  140.8984  167.0779 C.ar    1  UNL1        0.1348
     33 C         139.8233  140.1119  168.1268 C.ar    1  UNL1        0.0246
     34 C         139.4921  140.7465  169.4449 C.ar    1  UNL1        0.0147
     35 C         139.8898  142.1675  169.7143 C.ar    1  UNL1        0.0768
     36 CL        139.5586  142.8021  171.0324 Cl      1  UNL1       -0.0806
     37 C         140.6187  142.9540  168.6654 C.ar    1  UNL1        0.1103
     38 N         140.9499  142.3194  167.3472 N.ar    1  UNL1       -0.2384
@<TRIPOS>BOND
     1     1     2    1
     2     2     3    2
     3     3     4    1
     4     4     5    1
     5     5     6    1
     6     4     7    1
     7     7     8   ar
     8     8     9   ar
     9     9    28    1
    10    28    29   am
    11    29    30    2
    12    29    32    1
    13    32    33   ar
    14    33    34   ar
    15    34    35   ar
    16    35    36    1
    17    35    37   ar
    18    37    38   ar
    19     9    10   ar
    20    10    11   ar
    21    11    12   ar
    22    12    13    1
    23    13    14    1
    24    14    15   ar
    25    15    16   ar
    26    16    17   ar
    27    17    22    1
    28    22    23    2
    29    23    24    1
    30    24    25    1
    31    25    26    1
    32    26    27    1
    33    17    18   ar
    34    18    19   ar
    35     6     2    1
    36    12     7   ar
    37    19    14   ar
    38    19     4    1
    39    38    32   ar
    40    27    22    1
    41     1    20    1
    42     1    21    1
    43    28    31    1
@<TRIPOS>MOLECULE
*****
 38 43 0 0 0
SMALL
GASTEIGER

@<TRIPOS>ATOM
      1 N         141.6209  137.3548  163.2895 N.pl3   1  UNL1       -0.3133
      2 C         142.1050  137.9160  161.9854 C.2     1  UNL1        0.2773
      3 N         142.7972  139.2330  161.7950 N.2     1  UNL1       -0.2161
      4 C         143.1019  139.3898  160.3347 C.3     1  UNL1        0.1721
      5 C         142.5979  138.1696  159.6225 C.3     1  UNL1        0.2392
      6 O         141.9818  137.2588  160.6427 O.2     1  UNL1       -0.4474
      7 C         143.5525  140.5446  161.1793 C.ar    1  UNL1        0.0411
      8 C         143.3153  140.5281  162.6603 C.ar    1  UNL1        0.0157
      9 C         143.7659  141.6830  163.5050 C.ar    1  UNL1        0.0505
     10 C         144.4538  142.8541  162.8685 C.ar    1  UNL1        0.0178
     11 C         144.6910  142.8706  161.3875 C.ar    1  UNL1        0.0385
     12 C         144.2404  141.7158  160.5429 C.ar    1  UNL1        0.1436
     13 O         144.4776  141.7323  159.0619 O.3     1  UNL1       -0.4524
     14 C         144.0270  140.5775  158.2173 C.ar    1  UNL1        0.1625
     15 C         144.2643  140.5939  156.7363 C.ar    1  UNL1        0.1359
     16 N         143.8136  139.4391  155.8916 N.ar    1  UNL1       -0.2409
     17 C         143.1258  138.2679  156.5280 C.ar    1  UNL1        0.0794
     18 C         142.8885  138.2514  158.0090 C.ar    1  UNL1        0.0199
     19 C         143.3391  139.4062  158.8537 C.ar    1  UNL1        0.0430
     20 H         141.7485  137.8641  164.1223 H       1  UNL1        0.1466
     21 H         141.1755  136.4771  163.3126 H       1  UNL1        0.1466
     22 C         142.6751  137.1131  155.6834 C.2     1  UNL1        0.0207
     23 C         142.3064  135.8104  156.3292 C.2     1  UNL1       -0.0239
     24 C         141.8558  134.6556  155.4846 C.3     1  UNL1        0.0579
     25 C         141.7739  134.8035  153.9942 C.3     1  UNL1        0.1473
     26 O         142.1426  136.1062  153.3484 O.3     1  UNL1       -0.3486
     27 C         142.5932  137.2609  154.1929 C.3     1  UNL1        0.1698
     28 N         143.5287  141.6665  164.9860 N.am    1  UNL1       -0.2791
     29 C         142.2214  142.1486  165.5416 C.2     1  UNL1        0.2672
     30 O         141.1513  142.6471  164.6161 O.2     1  UNL1       -0.2682
     31 H         144.2310  141.3393  165.5934 H       1  UNL1        0.1552
     32 C         141.9841  142.1322  167.0226 C.ar    1  UNL1        0.1348
     33 C         143.1411  142.2577  167.9689 C.ar    1  UNL1        0.0246
     34 C         142.9039  142.2413  169.4499 C.ar    1  UNL1        0.0147
     35 C         141.5096  142.0993  169.9846 C.ar    1  UNL1        0.0768
     36 CL        141.2724  142.0828  171.4656 Cl      1  UNL1       -0.0806
     37 C         140.3526  141.9737  169.0383 C.ar    1  UNL1        0.1103
     38 N         140.5898  141.9901  167.5573 N.ar    1  UNL1       -0.2384
@<TRIPOS>BOND
     1     1     2    1
     2     2     3    2
     3     3     4    1
     4     4     5    1
     5     5     6    1
     6     4     7    1
     7     7     8   ar
     8     8     9   ar
     9     9    28    1
    10    28    29   am
    11    29    30    2
    12    29    32    1
    13    32    33   ar
    14    33    34   ar
    15    34    35   ar
    16    35    36    1
    17    35    37   ar
    18    37    38   ar
    19     9    10   ar
    20    10    11   ar
    21    11    12   ar
    22    12    13    1
    23    13    14    1
    24    14    15   ar
    25    15    16   ar
    26    16    17   ar
    27    17    22    1
    28    22    23    2
    29    23    24    1
    30    24    25    1
    31    25    26    1
    32    26    27    1
    33    17    18   ar
    34    18    19   ar
    35     6     2    1
    36    12     7   ar
    37    19    14   ar
    38    19     4    1
    39    38    32   ar
    40    27    22    1
    41     1    20    1
    42     1    21    1
    43    28    31    1
