@<TRIPOS>MOLECULE
*****
 20 20 0 0 0
SMALL
GASTEIGER

@<TRIPOS>ATOM
      1 N         143.1160  138.8604  168.4013 N.am    1  UNL1       -0.1579
      2 C         142.8172  139.1584  166.9618 C.2     1  UNL1        0.3686
      3 O         141.9365  140.3185  166.6033 O.2     1  UNL1       -0.2332
      4 N         143.3989  138.2962  165.8810 N.am    1  UNL1       -0.2556
      5 H         143.6940  138.0990  168.6366 H       1  UNL1        0.2558
      6 H         143.9769  137.5348  166.1164 H       1  UNL1        0.1578
      7 C         143.1001  138.5941  164.4416 C.ar    1  UNL1        0.0448
      8 C         141.8984  137.9838  163.7832 C.ar    1  UNL1       -0.0086
      9 C         140.9955  137.0755  164.5643 C.3     1  UNL1        0.0323
     10 C         141.5995  138.2817  162.3438 C.ar    1  UNL1       -0.0031
     11 C         142.5023  139.1900  161.5628 C.ar    1  UNL1       -0.0006
     12 C         143.7040  139.8003  162.2212 C.ar    1  UNL1       -0.0031
     13 C         144.0028  139.5023  163.6606 C.ar    1  UNL1       -0.0086
     14 C         145.2046  140.1127  164.3190 C.3     1  UNL1        0.0323
     15 C         140.4824  140.5299  170.8564 C.3     1  UNL1        0.2664
     16 N         141.0643  139.6677  169.7756 N.pl3   1  UNL1       -0.0955
     17 C         142.5342  139.7227  169.4821 C.2     1  UNL1        0.3795
     18 N         143.4224  140.6398  170.2694 N.pl3   1  UNL1       -0.2905
     19 H         143.0406  141.2057  170.9788 H       1  UNL1        0.2545
     20 H         144.3872  140.6759  170.0768 H       1  UNL1        0.2545
@<TRIPOS>BOND
     1    15    16    1
     2    16    17    2
     3    17    18    1
     4    17     1    1
     5     1     2   am
     6     2     3    2
     7     2     4   am
     8     4     7    1
     9     7     8   ar
    10     8     9    1
    11     8    10   ar
    12    10    11   ar
    13    11    12   ar
    14    12    13   ar
    15    13    14    1
    16    13     7   ar
    17    18    19    1
    18    18    20    1
    19     1     5    1
    20     4     6    1
@<TRIPOS>MOLECULE
*****
 20 20 0 0 0
SMALL
GASTEIGER

@<TRIPOS>ATOM
      1 N         143.1127  138.8570  168.4031 N.am    1  UNL1       -0.1579
      2 C         142.8137  139.1567  166.9641 C.2     1  UNL1        0.3686
      3 O         141.9329  140.3172  166.6070 O.2     1  UNL1       -0.2332
      4 N         143.3954  138.2958  165.8822 N.am    1  UNL1       -0.2556
      5 H         143.6908  138.0954  168.6375 H       1  UNL1        0.2558
      6 H         143.9734  137.5341  166.1165 H       1  UNL1        0.1578
      7 C         143.0963  138.5954  164.4431 C.ar    1  UNL1        0.0448
      8 C         144.0000  139.5032  163.6626 C.ar    1  UNL1       -0.0086
      9 C         145.2027  140.1115  164.3211 C.3     1  UNL1        0.0323
     10 C         143.7009  139.8029  162.2236 C.ar    1  UNL1       -0.0031
     11 C         142.4982  139.1947  161.5651 C.ar    1  UNL1       -0.0006
     12 C         141.5946  138.2869  162.3456 C.ar    1  UNL1       -0.0031
     13 C         141.8936  137.9873  163.7847 C.ar    1  UNL1       -0.0086
     14 C         140.9899  137.0794  164.5652 C.3     1  UNL1        0.0323
     15 C         140.4782  140.5289  170.8556 C.3     1  UNL1        0.2664
     16 N         141.0599  139.6680  169.7737 N.pl3   1  UNL1       -0.0955
     17 C         142.5310  139.7180  169.4850 C.2     1  UNL1        0.3795
     18 N         143.4205  140.6288  170.2782 N.pl3   1  UNL1       -0.2905
     19 H         143.0387  141.1939  170.9883 H       1  UNL1        0.2545
     20 H         144.3860  140.6617  170.0888 H       1  UNL1        0.2545
@<TRIPOS>BOND
     1    15    16    1
     2    16    17    2
     3    17    18    1
     4    17     1    1
     5     1     2   am
     6     2     3    2
     7     2     4   am
     8     4     7    1
     9     7     8   ar
    10     8     9    1
    11     8    10   ar
    12    10    11   ar
    13    11    12   ar
    14    12    13   ar
    15    13    14    1
    16    13     7   ar
    17    18    19    1
    18    18    20    1
    19     1     5    1
    20     4     6    1
@<TRIPOS>MOLECULE
*****
 20 20 0 0 0
SMALL
GASTEIGER

@<TRIPOS>ATOM
      1 N         141.4911  145.6151  160.6501 N.am    1  UNL1       -0.1579
      2 C         141.4093  144.6399  161.7869 C.2     1  UNL1        0.3686
      3 O         141.1281  143.1919  161.5142 O.2     1  UNL1       -0.2332
      4 N         141.6088  145.1127  163.1964 N.am    1  UNL1       -0.2556
      5 H         141.6756  146.5654  160.8290 H       1  UNL1        0.2558
      6 H         141.7933  146.0630  163.3753 H       1  UNL1        0.1578
      7 C         141.5271  144.1375  164.3332 C.ar    1  UNL1        0.0448
      8 C         142.7500  143.3832  164.7637 C.ar    1  UNL1       -0.0086
      9 C         144.0548  143.6041  164.0573 C.3     1  UNL1        0.0323
     10 C         142.6683  142.4080  165.9005 C.ar    1  UNL1       -0.0031
     11 C         141.3636  142.1871  166.6068 C.ar    1  UNL1       -0.0006
     12 C         140.1407  142.9414  166.1763 C.ar    1  UNL1       -0.0031
     13 C         140.2224  143.9166  165.0395 C.ar    1  UNL1       -0.0086
     14 C         138.9993  144.6709  164.6090 C.3     1  UNL1        0.0323
     15 C         142.0544  145.0839  156.7576 C.3     1  UNL1        0.2664
     16 N         142.2539  145.5567  158.1672 N.pl3   1  UNL1       -0.0955
     17 C         141.2916  145.1423  159.2405 C.2     1  UNL1        0.3795
     18 N         140.1298  144.2550  158.9044 N.pl3   1  UNL1       -0.2905
     19 H         139.9988  143.9447  157.9793 H       1  UNL1        0.2545
     20 H         139.4982  143.9830  159.6089 H       1  UNL1        0.2545
@<TRIPOS>BOND
     1    15    16    1
     2    16    17    2
     3    17    18    1
     4    17     1    1
     5     1     2   am
     6     2     3    2
     7     2     4   am
     8     4     7    1
     9     7     8   ar
    10     8     9    1
    11     8    10   ar
    12    10    11   ar
    13    11    12   ar
    14    12    13   ar
    15    13    14    1
    16    13     7   ar
    17    18    19    1
    18    18    20    1
    19     1     5    1
    20     4     6    1
@<TRIPOS>MOLECULE
*****
 20 20 0 0 0
SMALL
GASTEIGER

@<TRIPOS>ATOM
      1 N         141.4909  144.4704  159.0563 N.am    1  UNL1       -0.1579
      2 C         140.6228  144.6521  160.2660 C.2     1  UNL1        0.3686
      3 O         139.6888  145.8228  160.3498 O.2     1  UNL1       -0.2332
      4 N         140.6887  143.6630  161.3917 N.am    1  UNL1       -0.2556
      5 H         142.1040  143.7021  159.0012 H       1  UNL1        0.2558
      6 H         141.3018  142.8947  161.3367 H       1  UNL1        0.1578
      7 C         139.8206  143.8447  162.6014 C.ar    1  UNL1        0.0448
      8 C         138.4635  143.2079  162.6531 C.ar    1  UNL1       -0.0086
      9 C         137.9745  142.3893  161.4951 C.3     1  UNL1        0.0323
     10 C         137.5954  143.3895  163.8628 C.ar    1  UNL1       -0.0031
     11 C         138.0843  144.2080  165.0208 C.ar    1  UNL1       -0.0006
     12 C         139.4414  144.8448  164.9691 C.ar    1  UNL1       -0.0031
     13 C         140.3096  144.6631  163.7594 C.ar    1  UNL1       -0.0086
     14 C         141.6667  145.3000  163.7078 C.3     1  UNL1        0.0323
     15 C         140.1289  146.5318  155.9505 C.3     1  UNL1        0.2664
     16 N         140.1948  145.5427  157.0763 N.pl3   1  UNL1       -0.0955
     17 C         141.4250  145.4595  157.9304 C.2     1  UNL1        0.3795
     18 N         142.5893  146.3654  157.6588 N.pl3   1  UNL1       -0.2905
     19 H         142.5461  147.0146  156.9199 H       1  UNL1        0.2545
     20 H         143.3968  146.3108  158.2195 H       1  UNL1        0.2545
@<TRIPOS>BOND
     1    15    16    1
     2    16    17    2
     3    17    18    1
     4    17     1    1
     5     1     2   am
     6     2     3    2
     7     2     4   am
     8     4     7    1
     9     7     8   ar
    10     8     9    1
    11     8    10   ar
    12    10    11   ar
    13    11    12   ar
    14    12    13   ar
    15    13    14    1
    16    13     7   ar
    17    18    19    1
    18    18    20    1
    19     1     5    1
    20     4     6    1
@<TRIPOS>MOLECULE
*****
 20 20 0 0 0
SMALL
GASTEIGER

@<TRIPOS>ATOM
      1 N         141.5054  145.5987  160.6520 N.am    1  UNL1       -0.1579
      2 C         141.4232  144.6266  161.7913 C.2     1  UNL1        0.3686
      3 O         141.1411  143.1780  161.5223 O.2     1  UNL1       -0.2332
      4 N         141.6232  145.1028  163.1995 N.am    1  UNL1       -0.2556
      5 H         141.6906  146.5494  160.8284 H       1  UNL1        0.2558
      6 H         141.8084  146.0535  163.3760 H       1  UNL1        0.1578
      7 C         141.5410  144.1306  164.3389 C.ar    1  UNL1        0.0448
      8 C         140.2378  143.9172  165.0502 C.ar    1  UNL1       -0.0086
      9 C         139.0167  144.6760  164.6222 C.3     1  UNL1        0.0323
     10 C         140.1557  142.9450  166.1895 C.ar    1  UNL1       -0.0031
     11 C         141.3767  142.1862  166.6175 C.ar    1  UNL1       -0.0006
     12 C         142.6799  142.3997  165.9062 C.ar    1  UNL1       -0.0031
     13 C         142.7621  143.3719  164.7669 C.ar    1  UNL1       -0.0086
     14 C         144.0654  143.5853  164.0556 C.3     1  UNL1        0.0323
     15 C         142.0815  145.0371  156.7656 C.3     1  UNL1        0.2664
     16 N         142.2815  145.5135  158.1739 N.pl3   1  UNL1       -0.0955
     17 C         141.3054  145.1224  159.2437 C.2     1  UNL1        0.3795
     18 N         140.1294  144.2550  158.9052 N.pl3   1  UNL1       -0.2905
     19 H         139.9981  143.9424  157.9809 H       1  UNL1        0.2545
     20 H         139.4888  143.9983  159.6073 H       1  UNL1        0.2545
@<TRIPOS>BOND
     1    15    16    1
     2    16    17    2
     3    17    18    1
     4    17     1    1
     5     1     2   am
     6     2     3    2
     7     2     4   am
     8     4     7    1
     9     7     8   ar
    10     8     9    1
    11     8    10   ar
    12    10    11   ar
    13    11    12   ar
    14    12    13   ar
    15    13    14    1
    16    13     7   ar
    17    18    19    1
    18    18    20    1
    19     1     5    1
    20     4     6    1
@<TRIPOS>MOLECULE
*****
 20 20 0 0 0
SMALL
GASTEIGER

@<TRIPOS>ATOM
      1 N         142.7138  137.2861  160.9301 N.am    1  UNL1       -0.1579
      2 C         142.0468  138.0416  162.0411 C.2     1  UNL1        0.3686
      3 O         141.7490  139.5030  161.8811 O.2     1  UNL1       -0.2332
      4 N         141.6777  137.3357  163.3121 N.am    1  UNL1       -0.2556
      5 H         142.9093  136.3269  161.0351 H       1  UNL1        0.2558
      6 H         141.8732  136.3766  163.4171 H       1  UNL1        0.1578
      7 C         141.0107  138.0912  164.4231 C.ar    1  UNL1        0.0448
      8 C         141.8358  138.6928  165.5219 C.ar    1  UNL1       -0.0086
      9 C         143.3278  138.5389  165.5097 C.3     1  UNL1        0.0323
     10 C         141.1688  139.4483  166.6329 C.ar    1  UNL1       -0.0031
     11 C         139.6768  139.6022  166.6451 C.ar    1  UNL1       -0.0006
     12 C         138.8518  139.0006  165.5463 C.ar    1  UNL1       -0.0031
     13 C         139.5187  138.2451  164.4353 C.ar    1  UNL1       -0.0086
     14 C         138.6936  137.6435  163.3365 C.3     1  UNL1        0.0323
     15 C         142.9055  138.2164  157.0767 C.3     1  UNL1        0.2664
     16 N         142.5364  137.5105  158.3478 N.pl3   1  UNL1       -0.0955
     17 C         143.0830  137.9920  159.6590 C.2     1  UNL1        0.3795
     18 N         143.9986  139.1794  159.6993 N.pl3   1  UNL1       -0.2905
     19 H         144.2409  139.6427  158.8652 H       1  UNL1        0.2545
     20 H         144.3573  139.4954  160.5600 H       1  UNL1        0.2545
@<TRIPOS>BOND
     1    15    16    1
     2    16    17    2
     3    17    18    1
     4    17     1    1
     5     1     2   am
     6     2     3    2
     7     2     4   am
     8     4     7    1
     9     7     8   ar
    10     8     9    1
    11     8    10   ar
    12    10    11   ar
    13    11    12   ar
    14    12    13   ar
    15    13    14    1
    16    13     7   ar
    17    18    19    1
    18    18    20    1
    19     1     5    1
    20     4     6    1
@<TRIPOS>MOLECULE
*****
 20 20 0 0 0
SMALL
GASTEIGER

@<TRIPOS>ATOM
      1 N         142.7493  137.2995  160.9540 N.am    1  UNL1       -0.1579
      2 C         142.0648  138.0515  162.0567 C.2     1  UNL1        0.3686
      3 O         141.7315  139.5033  161.8799 O.2     1  UNL1       -0.2332
      4 N         141.7135  137.3517  163.3360 N.am    1  UNL1       -0.2556
      5 H         142.9681  136.3466  161.0699 H       1  UNL1        0.2558
      6 H         141.9323  136.3988  163.4520 H       1  UNL1        0.1578
      7 C         141.0290  138.1037  164.4387 C.ar    1  UNL1        0.0448
      8 C         139.5352  138.2392  164.4392 C.ar    1  UNL1       -0.0086
      9 C         138.7258  137.6226  163.3370 C.3     1  UNL1        0.0323
     10 C         138.8506  138.9911  165.5419 C.ar    1  UNL1       -0.0031
     11 C         139.6599  139.6076  166.6441 C.ar    1  UNL1       -0.0006
     12 C         141.1538  139.4722  166.6436 C.ar    1  UNL1       -0.0031
     13 C         141.8383  138.7202  165.5409 C.ar    1  UNL1       -0.0086
     14 C         143.3322  138.5847  165.5405 C.3     1  UNL1        0.0323
     15 C         142.9154  138.1903  157.0901 C.3     1  UNL1        0.2664
     16 N         142.5641  137.4904  158.3695 N.pl3   1  UNL1       -0.0955
     17 C         143.1006  137.9994  159.6745 C.2     1  UNL1        0.3795
     18 N         143.9883  139.2082  159.7002 N.pl3   1  UNL1       -0.2905
     19 H         144.2189  139.6675  158.8605 H       1  UNL1        0.2545
     20 H         144.3404  139.5423  160.5567 H       1  UNL1        0.2545
@<TRIPOS>BOND
     1    15    16    1
     2    16    17    2
     3    17    18    1
     4    17     1    1
     5     1     2   am
     6     2     3    2
     7     2     4   am
     8     4     7    1
     9     7     8   ar
    10     8     9    1
    11     8    10   ar
    12    10    11   ar
    13    11    12   ar
    14    12    13   ar
    15    13    14    1
    16    13     7   ar
    17    18    19    1
    18    18    20    1
    19     1     5    1
    20     4     6    1
@<TRIPOS>MOLECULE
*****
 20 20 0 0 0
SMALL
GASTEIGER

@<TRIPOS>ATOM
      1 N         139.8203  144.8559  162.4934 N.am    1  UNL1       -0.1579
      2 C         139.8271  143.5189  163.1732 C.2     1  UNL1        0.3686
      3 O         140.6562  142.3991  162.6175 O.2     1  UNL1       -0.2332
      4 N         139.0048  143.3015  164.4088 N.am    1  UNL1       -0.2556
      5 H         139.2762  145.5909  162.8581 H       1  UNL1        0.2558
      6 H         138.4607  144.0365  164.7735 H       1  UNL1        0.1578
      7 C         139.0116  141.9645  165.0886 C.ar    1  UNL1        0.0448
      8 C         139.8247  141.7595  166.3323 C.ar    1  UNL1       -0.0086
      9 C         140.6312  142.8917  166.8962 C.3     1  UNL1        0.0323
     10 C         139.8315  140.4225  167.0122 C.ar    1  UNL1       -0.0031
     11 C         139.0251  139.2903  166.4483 C.ar    1  UNL1       -0.0006
     12 C         138.2120  139.4952  165.2047 C.ar    1  UNL1       -0.0031
     13 C         138.2052  140.8323  164.5248 C.ar    1  UNL1       -0.0086
     14 C         137.3920  141.0372  163.2811 C.3     1  UNL1        0.0323
     15 C         140.7912  145.5900  158.7159 C.3     1  UNL1        0.2664
     16 N         139.9689  145.3727  159.9516 N.pl3   1  UNL1       -0.0955
     17 C         140.6426  145.0732  161.2578 C.2     1  UNL1        0.3795
     18 N         142.1387  144.9909  161.3285 N.pl3   1  UNL1       -0.2905
     19 H         142.6784  145.1335  160.5175 H       1  UNL1        0.2545
     20 H         142.5809  144.7943  162.1858 H       1  UNL1        0.2545
@<TRIPOS>BOND
     1    15    16    1
     2    16    17    2
     3    17    18    1
     4    17     1    1
     5     1     2   am
     6     2     3    2
     7     2     4   am
     8     4     7    1
     9     7     8   ar
    10     8     9    1
    11     8    10   ar
    12    10    11   ar
    13    11    12   ar
    14    12    13   ar
    15    13    14    1
    16    13     7   ar
    17    18    19    1
    18    18    20    1
    19     1     5    1
    20     4     6    1
@<TRIPOS>MOLECULE
*****
 20 20 0 0 0
SMALL
GASTEIGER

@<TRIPOS>ATOM
      1 N         137.7086  139.8460  162.0959 N.am    1  UNL1       -0.1579
      2 C         138.5392  140.0129  163.3337 C.2     1  UNL1        0.3686
      3 O         139.9821  139.6029  163.3295 O.2     1  UNL1       -0.2332
      4 N         137.9270  140.5898  164.5756 N.am    1  UNL1       -0.2556
      5 H         136.7616  140.1150  162.0986 H       1  UNL1        0.2558
      6 H         136.9800  140.8588  164.5783 H       1  UNL1        0.1578
      7 C         138.7576  140.7567  165.8134 C.ar    1  UNL1        0.0448
      8 C         139.6224  141.9712  165.9782 C.ar    1  UNL1       -0.0086
      9 C         139.6565  143.0188  164.9052 C.3     1  UNL1        0.0323
     10 C         140.4530  142.1381  167.2160 C.ar    1  UNL1       -0.0031
     11 C         140.4189  141.0905  168.2890 C.ar    1  UNL1       -0.0006
     12 C         139.5542  139.8760  168.1242 C.ar    1  UNL1       -0.0031
     13 C         138.7236  139.7091  166.8864 C.ar    1  UNL1       -0.0086
     14 C         137.8588  138.4945  166.7216 C.3     1  UNL1        0.0323
     15 C         138.9703  139.5004  158.3490 C.3     1  UNL1        0.2664
     16 N         138.3580  140.0773  159.5909 N.pl3   1  UNL1       -0.0955
     17 C         138.3209  139.2691  160.8539 C.2     1  UNL1        0.3795
     18 N         138.8960  137.8839  160.8751 N.pl3   1  UNL1       -0.2905
     19 H         139.2978  137.5052  160.0600 H       1  UNL1        0.2545
     20 H         138.8716  137.3533  161.7041 H       1  UNL1        0.2545
@<TRIPOS>BOND
     1    15    16    1
     2    16    17    2
     3    17    18    1
     4    17     1    1
     5     1     2   am
     6     2     3    2
     7     2     4   am
     8     4     7    1
     9     7     8   ar
    10     8     9    1
    11     8    10   ar
    12    10    11   ar
    13    11    12   ar
    14    12    13   ar
    15    13    14    1
    16    13     7   ar
    17    18    19    1
    18    18    20    1
    19     1     5    1
    20     4     6    1
