@<TRIPOS>MOLECULE
*****
 28 31 0 0 0
SMALL
GASTEIGER

@<TRIPOS>ATOM
      1 C         138.2987  139.2414  161.5428 C.3     1  UNL1        0.1205
      2 N         138.7720  140.4728  162.2565 N.am    1  UNL1       -0.2493
      3 C         139.0781  141.6538  161.3838 C.2     1  UNL1        0.2581
      4 O         138.8703  141.4471  159.9127 O.2     1  UNL1       -0.2694
      5 C         139.5646  143.0141  161.7876 C.ar    1  UNL1        0.1157
      6 C         139.7456  143.9073  160.5962 C.ar    1  UNL1        0.1474
      7 F         139.4451  143.3920  159.2199 F       1  UNL1       -0.2039
      8 C         140.2271  145.3158  160.7811 C.ar    1  UNL1        0.0300
      9 C         140.5276  145.8311  162.1574 C.ar    1  UNL1        0.0054
     10 C         140.3465  144.9379  163.3488 C.ar    1  UNL1        0.0378
     11 C         139.8650  143.5294  163.1639 C.ar    1  UNL1        0.1519
     12 O         139.7533  142.8117  164.4763 O.3     1  UNL1       -0.4519
     13 C         139.3135  141.4014  164.7366 C.ar    1  UNL1        0.1631
     14 C         139.3462  141.0786  166.2010 C.ar    1  UNL1        0.0728
     15 C         138.9423  139.7148  166.6776 C.ar    1  UNL1        0.1316
     16 N         138.5057  138.6740  165.6898 N.ar    1  UNL1       -0.2279
     17 C         138.4729  138.9969  164.2253 C.ar    1  UNL1        0.1182
     18 C         138.8768  140.3606  163.7487 C.ar    1  UNL1        0.1084
     19 N         138.9751  139.3921  168.1421 N.pl3   1  UNL1       -0.3196
     20 H         138.4172  138.6633  168.4982 H       1  UNL1        0.1481
     21 C         139.8579  140.1797  169.0642 C.3     1  UNL1        0.0705
     22 C         141.3290  139.8923  169.1212 C.3     1  UNL1        0.0220
     23 C         142.2119  140.6800  170.0433 C.3     1  UNL1        0.0309
     24 C         141.6236  141.7550  170.9083 C.3     1  UNL1        0.1106
     25 O         142.5065  142.5426  171.8304 O.3     1  UNL1       -0.3845
     26 C         140.1525  142.0423  170.8513 C.3     1  UNL1        0.0309
     27 C         139.2697  141.2547  169.9293 C.3     1  UNL1        0.0220
     28 H         143.4217  142.2328  171.7447 H       1  UNL1        0.2103
@<TRIPOS>BOND
     1     1     2    1
     2     2     3   am
     3     3     4    2
     4     3     5    1
     5     5     6   ar
     6     6     7    1
     7     6     8   ar
     8     8     9   ar
     9     9    10   ar
    10    10    11   ar
    11    11    12    1
    12    12    13    1
    13    13    14   ar
    14    14    15   ar
    15    15    19    1
    16    21    19    1
    17    21    22    1
    18    22    23    1
    19    23    24    1
    20    24    25    1
    21    24    26    1
    22    26    27    1
    23    15    16   ar
    24    16    17   ar
    25    17    18   ar
    26    18     2    1
    27    11     5   ar
    28    18    13   ar
    29    27    21    1
    30    19    20    1
    31    25    28    1
@<TRIPOS>MOLECULE
*****
 28 31 0 0 0
SMALL
GASTEIGER

@<TRIPOS>ATOM
      1 C         144.1322  140.1513  161.3761 C.3     1  UNL1        0.1205
      2 N         143.2584  141.0797  162.1662 N.am    1  UNL1       -0.2493
      3 C         142.6727  142.2301  161.4023 C.2     1  UNL1        0.2581
      4 O         143.0384  142.3000  159.9493 O.2     1  UNL1       -0.2694
      5 C         141.7697  143.3200  161.8993 C.ar    1  UNL1        0.1157
      6 C         141.4129  144.2788  160.8024 C.ar    1  UNL1        0.1474
      7 F         141.9533  144.0703  159.4187 F       1  UNL1       -0.2039
      8 C         140.5157  145.4462  161.0891 C.ar    1  UNL1        0.0300
      9 C         139.9753  145.6547  162.4728 C.ar    1  UNL1        0.0054
     10 C         140.3322  144.6959  163.5697 C.ar    1  UNL1        0.0378
     11 C         141.2293  143.5285  163.2829 C.ar    1  UNL1        0.1519
     12 O         141.4585  142.6987  164.5113 O.3     1  UNL1       -0.4519
     13 C         142.2846  141.4555  164.6596 C.ar    1  UNL1        0.1631
     14 C         142.2460  140.9362  166.0662 C.ar    1  UNL1        0.0728
     15 C         143.0084  139.6965  166.4293 C.ar    1  UNL1        0.1316
     16 N         143.8094  138.9760  165.3857 N.ar    1  UNL1       -0.2279
     17 C         143.8480  139.4952  163.9789 C.ar    1  UNL1        0.1182
     18 C         143.0856  140.7350  163.6158 C.ar    1  UNL1        0.1084
     19 N         142.9697  139.1773  167.8360 N.pl3   1  UNL1       -0.3196
     20 H         143.3861  138.3120  168.0530 H       1  UNL1        0.1481
     21 C         142.2967  139.9764  168.9122 C.3     1  UNL1        0.0705
     22 C         143.0734  141.0048  169.6797 C.3     1  UNL1        0.0220
     23 C         142.4003  141.8040  170.7559 C.3     1  UNL1        0.0309
     24 C         140.9504  141.5747  171.0647 C.3     1  UNL1        0.1106
     25 O         140.2773  142.3740  172.1409 O.3     1  UNL1       -0.3845
     26 C         140.1737  140.5463  170.2972 C.3     1  UNL1        0.0309
     27 C         140.8467  139.7472  169.2210 C.3     1  UNL1        0.0220
     28 H         140.9160  142.9889  172.5344 H       1  UNL1        0.2103
@<TRIPOS>BOND
     1     1     2    1
     2     2     3   am
     3     3     4    2
     4     3     5    1
     5     5     6   ar
     6     6     7    1
     7     6     8   ar
     8     8     9   ar
     9     9    10   ar
    10    10    11   ar
    11    11    12    1
    12    12    13    1
    13    13    14   ar
    14    14    15   ar
    15    15    19    1
    16    21    19    1
    17    21    22    1
    18    22    23    1
    19    23    24    1
    20    24    25    1
    21    24    26    1
    22    26    27    1
    23    15    16   ar
    24    16    17   ar
    25    17    18   ar
    26    18     2    1
    27    11     5   ar
    28    18    13   ar
    29    27    21    1
    30    19    20    1
    31    25    28    1
@<TRIPOS>MOLECULE
*****
 28 31 0 0 0
SMALL
GASTEIGER

@<TRIPOS>ATOM
      1 C         138.6152  137.9155  165.7579 C.3     1  UNL1        0.1205
      2 N         139.6540  138.8835  166.2412 N.am    1  UNL1       -0.2493
      3 C         139.3517  139.5671  167.5417 C.2     1  UNL1        0.2581
      4 O         138.0505  139.1922  168.1869 O.2     1  UNL1       -0.2694
      5 C         140.1785  140.5759  168.2824 C.ar    1  UNL1        0.1157
      6 C         139.5068  141.0095  169.5516 C.ar    1  UNL1        0.1474
      7 F         138.1734  140.4350  169.9285 F       1  UNL1       -0.2039
      8 C         140.1685  142.0174  170.4438 C.ar    1  UNL1        0.0300
      9 C         141.5019  142.5919  170.0669 C.ar    1  UNL1        0.0054
     10 C         142.1736  142.1584  168.7977 C.ar    1  UNL1        0.0378
     11 C         141.5119  141.1504  167.9055 C.ar    1  UNL1        0.1519
     12 O         142.3478  140.8578  166.6947 O.3     1  UNL1       -0.4519
     13 C         142.0568  139.9186  165.5620 C.ar    1  UNL1        0.1631
     14 C         143.1617  139.9244  164.5475 C.ar    1  UNL1        0.0728
     15 C         143.0678  139.0515  163.3313 C.ar    1  UNL1        0.1316
     16 N         141.8690  138.1729  163.1295 N.ar    1  UNL1       -0.2279
     17 C         140.7640  138.1671  164.1439 C.ar    1  UNL1        0.1182
     18 C         140.8579  139.0399  165.3602 C.ar    1  UNL1        0.1084
     19 N         144.1728  139.0574  162.3169 N.pl3   1  UNL1       -0.3196
     20 H         144.8822  138.3760  162.3580 H       1  UNL1        0.1481
     21 C         144.1968  140.1012  161.2401 C.3     1  UNL1        0.0705
     22 C         143.8479  139.7312  159.8289 C.3     1  UNL1        0.0220
     23 C         143.8720  140.7751  158.7520 C.3     1  UNL1        0.0309
     24 C         144.2450  142.1890  159.0863 C.3     1  UNL1        0.1106
     25 O         144.2691  143.2329  158.0093 O.3     1  UNL1       -0.3845
     26 C         144.5939  142.5590  160.4974 C.3     1  UNL1        0.0309
     27 C         144.5699  141.5152  161.5743 C.3     1  UNL1        0.0220
     28 H         144.0202  142.8299  157.1628 H       1  UNL1        0.2103
@<TRIPOS>BOND
     1     1     2    1
     2     2     3   am
     3     3     4    2
     4     3     5    1
     5     5     6   ar
     6     6     7    1
     7     6     8   ar
     8     8     9   ar
     9     9    10   ar
    10    10    11   ar
    11    11    12    1
    12    12    13    1
    13    13    14   ar
    14    14    15   ar
    15    15    19    1
    16    21    19    1
    17    21    22    1
    18    22    23    1
    19    23    24    1
    20    24    25    1
    21    24    26    1
    22    26    27    1
    23    15    16   ar
    24    16    17   ar
    25    17    18   ar
    26    18     2    1
    27    11     5   ar
    28    18    13   ar
    29    27    21    1
    30    19    20    1
    31    25    28    1
@<TRIPOS>MOLECULE
*****
 28 31 0 0 0
SMALL
GASTEIGER

@<TRIPOS>ATOM
      1 C         138.3399  138.0120  162.3292 C.3     1  UNL1        0.1205
      2 N         139.5594  138.8127  162.6776 N.am    1  UNL1       -0.2493
      3 C         140.4760  139.1333  161.5343 C.2     1  UNL1        0.2581
      4 O         140.0518  138.6108  160.1938 O.2     1  UNL1       -0.2694
      5 C         141.7607  139.9074  161.5543 C.ar    1  UNL1        0.1157
      6 C         142.3677  139.9973  160.1855 C.ar    1  UNL1        0.1474
      7 F         141.6822  139.3527  159.0173 F       1  UNL1       -0.2039
      8 C         143.6600  140.7318  159.9850 C.ar    1  UNL1        0.0300
      9 C         144.3454  141.3764  161.1532 C.ar    1  UNL1        0.0054
     10 C         143.7385  141.2865  162.5219 C.ar    1  UNL1        0.0378
     11 C         142.4462  140.5520  162.7225 C.ar    1  UNL1        0.1519
     12 O         142.0161  140.5817  164.1592 O.3     1  UNL1       -0.4519
     13 C         140.7945  139.9743  164.7827 C.ar    1  UNL1        0.1631
     14 C         140.7431  140.2387  166.2582 C.ar    1  UNL1        0.0728
     15 C         139.5984  139.7159  167.0745 C.ar    1  UNL1        0.1316
     16 N         138.5051  138.9286  166.4151 N.ar    1  UNL1       -0.2279
     17 C         138.5565  138.6641  164.9395 C.ar    1  UNL1        0.1182
     18 C         139.7012  139.1870  164.1232 C.ar    1  UNL1        0.1084
     19 N         139.5470  139.9804  168.5500 N.pl3   1  UNL1       -0.3196
     20 H         138.8693  139.5335  169.1069 H       1  UNL1        0.1481
     21 C         140.5283  140.9257  169.1772 C.3     1  UNL1        0.0705
     22 C         141.8270  140.4075  169.7201 C.3     1  UNL1        0.0220
     23 C         142.8083  141.3530  170.3472 C.3     1  UNL1        0.0309
     24 C         142.4908  142.8165  170.4314 C.3     1  UNL1        0.1106
     25 O         143.4722  143.7619  171.0586 O.3     1  UNL1       -0.3845
     26 C         141.1921  143.3347  169.8885 C.3     1  UNL1        0.0309
     27 C         140.2109  142.3894  169.2614 C.3     1  UNL1        0.0220
     28 H         144.2526  143.2681  171.3553 H       1  UNL1        0.2103
@<TRIPOS>BOND
     1     1     2    1
     2     2     3   am
     3     3     4    2
     4     3     5    1
     5     5     6   ar
     6     6     7    1
     7     6     8   ar
     8     8     9   ar
     9     9    10   ar
    10    10    11   ar
    11    11    12    1
    12    12    13    1
    13    13    14   ar
    14    14    15   ar
    15    15    19    1
    16    21    19    1
    17    21    22    1
    18    22    23    1
    19    23    24    1
    20    24    25    1
    21    24    26    1
    22    26    27    1
    23    15    16   ar
    24    16    17   ar
    25    17    18   ar
    26    18     2    1
    27    11     5   ar
    28    18    13   ar
    29    27    21    1
    30    19    20    1
    31    25    28    1
@<TRIPOS>MOLECULE
*****
 28 31 0 0 0
SMALL
GASTEIGER

@<TRIPOS>ATOM
      1 C         137.7561  138.8156  167.0174 C.3     1  UNL1        0.1205
      2 N         139.0169  139.6237  166.9330 N.am    1  UNL1       -0.2493
      3 C         139.6154  140.0352  168.2455 C.2     1  UNL1        0.2581
      4 O         138.8738  139.5840  169.4688 O.2     1  UNL1       -0.2694
      5 C         140.8574  140.8380  168.4965 C.ar    1  UNL1        0.1157
      6 C         141.1016  141.0252  169.9645 C.ar    1  UNL1        0.1474
      7 F         140.1513  140.4354  170.9641 F       1  UNL1       -0.2039
      8 C         142.2961  141.8021  170.4330 C.ar    1  UNL1        0.0300
      9 C         143.2464  142.3918  169.4334 C.ar    1  UNL1        0.0054
     10 C         143.0021  142.2047  167.9654 C.ar    1  UNL1        0.0378
     11 C         141.8076  141.4278  167.4969 C.ar    1  UNL1        0.1519
     12 O         141.7506  141.3603  165.9995 O.3     1  UNL1       -0.4519
     13 C         140.7293  140.6865  165.1318 C.ar    1  UNL1        0.1631
     14 C         141.0465  140.8602  163.6761 C.ar    1  UNL1        0.0728
     15 C         140.1471  140.2611  162.6358 C.ar    1  UNL1        0.1316
     16 N         138.9305  139.4882  163.0512 N.ar    1  UNL1       -0.2279
     17 C         138.6133  139.3145  164.5070 C.ar    1  UNL1        0.1182
     18 C         139.5127  139.9136  165.5473 C.ar    1  UNL1        0.1084
     19 N         140.4643  140.4349  161.1801 N.pl3   1  UNL1       -0.3196
     20 H         140.4217  139.6623  160.5713 H       1  UNL1        0.1481
     21 C         140.8466  141.7856  160.6518 C.3     1  UNL1        0.0705
     22 C         142.2599  142.0519  160.2257 C.3     1  UNL1        0.0220
     23 C         142.6421  143.4028  159.6974 C.3     1  UNL1        0.0309
     24 C         141.6110  144.4873  159.5952 C.3     1  UNL1        0.1106
     25 O         141.9933  145.8382  159.0668 O.3     1  UNL1       -0.3845
     26 C         140.1977  144.2211  160.0212 C.3     1  UNL1        0.0309
     27 C         139.8154  142.8703  160.5495 C.3     1  UNL1        0.0220
     28 H         142.9362  145.8413  158.8390 H       1  UNL1        0.2103
@<TRIPOS>BOND
     1     1     2    1
     2     2     3   am
     3     3     4    2
     4     3     5    1
     5     5     6   ar
     6     6     7    1
     7     6     8   ar
     8     8     9   ar
     9     9    10   ar
    10    10    11   ar
    11    11    12    1
    12    12    13    1
    13    13    14   ar
    14    14    15   ar
    15    15    19    1
    16    21    19    1
    17    21    22    1
    18    22    23    1
    19    23    24    1
    20    24    25    1
    21    24    26    1
    22    26    27    1
    23    15    16   ar
    24    16    17   ar
    25    17    18   ar
    26    18     2    1
    27    11     5   ar
    28    18    13   ar
    29    27    21    1
    30    19    20    1
    31    25    28    1
@<TRIPOS>MOLECULE
*****
 28 31 0 0 0
SMALL
GASTEIGER

@<TRIPOS>ATOM
      1 C         144.4415  142.4822  161.2596 C.3     1  UNL1        0.1205
      2 N         143.3136  141.6943  161.8571 N.am    1  UNL1       -0.2493
      3 C         142.4863  140.9039  160.8871 C.2     1  UNL1        0.2581
      4 O         142.8963  141.0061  159.4478 O.2     1  UNL1       -0.2694
      5 C         141.3032  140.0249  161.1659 C.ar    1  UNL1        0.1157
      6 C         140.7643  139.4154  159.9058 C.ar    1  UNL1        0.1474
      7 F         141.4123  139.7211  158.5880 F       1  UNL1       -0.2039
      8 C         139.5774  138.5001  159.9635 C.ar    1  UNL1        0.0300
      9 C         138.9294  138.1943  161.2813 C.ar    1  UNL1        0.0054
     10 C         139.4684  138.8039  162.5414 C.ar    1  UNL1        0.0378
     11 C         140.6553  139.7192  162.4837 C.ar    1  UNL1        0.1519
     12 O         141.0304  140.2169  163.8481 O.3     1  UNL1       -0.4519
     13 C         142.1460  141.1433  164.2318 C.ar    1  UNL1        0.1631
     14 C         142.1720  141.3866  165.7116 C.ar    1  UNL1        0.0728
     15 C         143.2141  142.2874  166.3054 C.ar    1  UNL1        0.1316
     16 N         144.2302  142.9449  165.4194 N.ar    1  UNL1       -0.2279
     17 C         144.2043  142.7015  163.9394 C.ar    1  UNL1        0.1182
     18 C         143.1622  141.8008  163.3456 C.ar    1  UNL1        0.1084
     19 N         143.2400  142.5307  167.7853 N.pl3   1  UNL1       -0.3196
     20 H         143.8402  143.2144  168.1614 H       1  UNL1        0.1481
     21 C         142.3513  141.7323  168.6924 C.3     1  UNL1        0.0705
     22 C         141.0749  142.3287  169.2071 C.3     1  UNL1        0.0220
     23 C         140.1862  141.5301  170.1141 C.3     1  UNL1        0.0309
     24 C         140.5741  140.1353  170.5064 C.3     1  UNL1        0.1106
     25 O         139.6853  139.3368  171.4135 O.3     1  UNL1       -0.3845
     26 C         141.8505  139.5389  169.9917 C.3     1  UNL1        0.0309
     27 C         142.7392  140.3373  169.0847 C.3     1  UNL1        0.0220
     28 H         138.9080  139.8657  171.6521 H       1  UNL1        0.2103
@<TRIPOS>BOND
     1     1     2    1
     2     2     3   am
     3     3     4    2
     4     3     5    1
     5     5     6   ar
     6     6     7    1
     7     6     8   ar
     8     8     9   ar
     9     9    10   ar
    10    10    11   ar
    11    11    12    1
    12    12    13    1
    13    13    14   ar
    14    14    15   ar
    15    15    19    1
    16    21    19    1
    17    21    22    1
    18    22    23    1
    19    23    24    1
    20    24    25    1
    21    24    26    1
    22    26    27    1
    23    15    16   ar
    24    16    17   ar
    25    17    18   ar
    26    18     2    1
    27    11     5   ar
    28    18    13   ar
    29    27    21    1
    30    19    20    1
    31    25    28    1
@<TRIPOS>MOLECULE
*****
 28 31 0 0 0
SMALL
GASTEIGER

@<TRIPOS>ATOM
      1 C         138.9676  145.1418  162.9733 C.3     1  UNL1        0.1205
      2 N         140.1302  144.3977  162.3864 N.am    1  UNL1       -0.2493
      3 C         140.4755  144.7437  160.9683 C.2     1  UNL1        0.2581
      4 O         139.6124  145.7881  160.3246 O.2     1  UNL1       -0.2694
      5 C         141.5698  144.1835  160.1087 C.ar    1  UNL1        0.1157
      6 C         141.5683  144.8067  158.7444 C.ar    1  UNL1        0.1474
      7 F         140.5491  145.8513  158.3981 F       1  UNL1       -0.2039
      8 C         142.5860  144.3853  157.7263 C.ar    1  UNL1        0.0300
      9 C         143.6053  143.3406  158.0726 C.ar    1  UNL1        0.0054
     10 C         143.6067  142.7174  159.4370 C.ar    1  UNL1        0.0378
     11 C         142.5890  143.1389  160.4550 C.ar    1  UNL1        0.1519
     12 O         142.7657  142.3965  161.7464 O.3     1  UNL1       -0.4519
     13 C         141.9669  142.5153  163.0105 C.ar    1  UNL1        0.1631
     14 C         142.4784  141.5866  164.0715 C.ar    1  UNL1        0.0728
     15 C         141.8171  141.5485  165.4173 C.ar    1  UNL1        0.1316
     16 N         140.6443  142.4391  165.7021 N.ar    1  UNL1       -0.2279
     17 C         140.1327  143.3679  164.6411 C.ar    1  UNL1        0.1182
     18 C         140.7940  143.4060  163.2952 C.ar    1  UNL1        0.1084
     19 N         142.3287  140.6197  166.4782 N.pl3   1  UNL1       -0.3196
     20 H         142.6943  139.7405  166.2281 H       1  UNL1        0.1481
     21 C         142.2835  141.0305  167.9201 C.3     1  UNL1        0.0705
     22 C         141.4740  140.2356  168.9014 C.3     1  UNL1        0.0220
     23 C         141.4288  140.6464  170.3433 C.3     1  UNL1        0.0309
     24 C         142.1930  141.8521  170.8039 C.3     1  UNL1        0.1106
     25 O         142.1477  142.2629  172.2460 O.3     1  UNL1       -0.3845
     26 C         143.0024  142.6471  169.8227 C.3     1  UNL1        0.0309
     27 C         143.0477  142.2363  168.3808 C.3     1  UNL1        0.0220
     28 H         141.5840  141.6472  172.7400 H       1  UNL1        0.2103
@<TRIPOS>BOND
     1     1     2    1
     2     2     3   am
     3     3     4    2
     4     3     5    1
     5     5     6   ar
     6     6     7    1
     7     6     8   ar
     8     8     9   ar
     9     9    10   ar
    10    10    11   ar
    11    11    12    1
    12    12    13    1
    13    13    14   ar
    14    14    15   ar
    15    15    19    1
    16    21    19    1
    17    21    22    1
    18    22    23    1
    19    23    24    1
    20    24    25    1
    21    24    26    1
    22    26    27    1
    23    15    16   ar
    24    16    17   ar
    25    17    18   ar
    26    18     2    1
    27    11     5   ar
    28    18    13   ar
    29    27    21    1
    30    19    20    1
    31    25    28    1
@<TRIPOS>MOLECULE
*****
 28 31 0 0 0
SMALL
GASTEIGER

@<TRIPOS>ATOM
      1 C         138.5352  138.0577  161.8564 C.3     1  UNL1        0.1205
      2 N         139.1222  139.4379  161.8683 N.am    1  UNL1       -0.2493
      3 C         138.9184  140.2427  160.6190 C.2     1  UNL1        0.2581
      4 O         138.1545  139.5608  159.5229 O.2     1  UNL1       -0.2694
      5 C         139.3774  141.6393  160.3207 C.ar    1  UNL1        0.1157
      6 C         138.9616  142.0709  158.9457 C.ar    1  UNL1        0.1474
      7 F         138.1853  141.1342  158.0682 F       1  UNL1       -0.2039
      8 C         139.3221  143.4393  158.4481 C.ar    1  UNL1        0.0300
      9 C         140.0985  144.3760  159.3256 C.ar    1  UNL1        0.0054
     10 C         140.5143  143.9443  160.7006 C.ar    1  UNL1        0.0378
     11 C         140.1538  142.5760  161.1982 C.ar    1  UNL1        0.1519
     12 O         140.6627  142.3475  162.5906 O.3     1  UNL1       -0.4519
     13 C         140.5211  141.1259  163.4494 C.ar    1  UNL1        0.1631
     14 C         141.1805  141.3143  164.7835 C.ar    1  UNL1        0.0728
     15 C         141.1543  140.2080  165.7960 C.ar    1  UNL1        0.1316
     16 N         140.4688  138.9132  165.4746 N.ar    1  UNL1       -0.2279
     17 C         139.8094  138.7247  164.1405 C.ar    1  UNL1        0.1182
     18 C         139.8355  139.8310  163.1279 C.ar    1  UNL1        0.1084
     19 N         141.8138  140.3966  167.1300 N.pl3   1  UNL1       -0.3196
     20 H         142.7157  140.0352  167.2888 H       1  UNL1        0.1481
     21 C         141.0991  141.1357  168.2222 C.3     1  UNL1        0.0705
     22 C         141.4891  142.5459  168.5530 C.3     1  UNL1        0.0220
     23 C         140.7744  143.2850  169.6453 C.3     1  UNL1        0.0309
     24 C         139.6698  142.6141  170.4065 C.3     1  UNL1        0.1106
     25 O         138.9551  143.3533  171.4987 O.3     1  UNL1       -0.3845
     26 C         139.2798  141.2039  170.0757 C.3     1  UNL1        0.0309
     27 C         139.9945  140.4648  168.9835 C.3     1  UNL1        0.0220
     28 H         139.3272  144.2452  171.5826 H       1  UNL1        0.2103
@<TRIPOS>BOND
     1     1     2    1
     2     2     3   am
     3     3     4    2
     4     3     5    1
     5     5     6   ar
     6     6     7    1
     7     6     8   ar
     8     8     9   ar
     9     9    10   ar
    10    10    11   ar
    11    11    12    1
    12    12    13    1
    13    13    14   ar
    14    14    15   ar
    15    15    19    1
    16    21    19    1
    17    21    22    1
    18    22    23    1
    19    23    24    1
    20    24    25    1
    21    24    26    1
    22    26    27    1
    23    15    16   ar
    24    16    17   ar
    25    17    18   ar
    26    18     2    1
    27    11     5   ar
    28    18    13   ar
    29    27    21    1
    30    19    20    1
    31    25    28    1
@<TRIPOS>MOLECULE
*****
 28 31 0 0 0
SMALL
GASTEIGER

@<TRIPOS>ATOM
      1 C         137.3783  141.1417  163.0022 C.3     1  UNL1        0.1205
      2 N         138.6710  141.5534  163.6419 N.am    1  UNL1       -0.2493
      3 C         138.9811  140.9052  164.9586 C.2     1  UNL1        0.2581
      4 O         137.9574  139.9310  165.4614 O.2     1  UNL1       -0.2694
      5 C         140.1795  141.1023  165.8390 C.ar    1  UNL1        0.1157
      6 C         140.0969  140.2561  167.0747 C.ar    1  UNL1        0.1474
      7 F         138.9125  139.3621  167.2936 F       1  UNL1       -0.2039
      8 C         141.1985  140.3041  168.0915 C.ar    1  UNL1        0.0300
      9 C         142.3829  141.1982  167.8726 C.ar    1  UNL1        0.0054
     10 C         142.4655  142.0443  166.6369 C.ar    1  UNL1        0.0378
     11 C         141.3639  141.9964  165.6200 C.ar    1  UNL1        0.1519
     12 O         141.6423  142.9142  164.4667 O.3     1  UNL1       -0.4519
     13 C         140.8052  143.1646  163.2474 C.ar    1  UNL1        0.1631
     14 C         141.4523  144.1629  162.3339 C.ar    1  UNL1        0.0728
     15 C         140.7771  144.5556  161.0533 C.ar    1  UNL1        0.1316
     16 N         139.4548  143.9501  160.6863 N.ar    1  UNL1       -0.2279
     17 C         138.8077  142.9517  161.5998 C.ar    1  UNL1        0.1182
     18 C         139.4829  142.5589  162.8804 C.ar    1  UNL1        0.1084
     19 N         141.4243  145.5540  160.1399 N.pl3   1  UNL1       -0.3196
     20 H         141.8769  146.3436  160.5152 H       1  UNL1        0.1481
     21 C         141.3820  145.3493  158.6545 C.3     1  UNL1        0.0705
     22 C         140.3093  146.0060  157.8372 C.3     1  UNL1        0.0220
     23 C         140.2671  145.8013  156.3518 C.3     1  UNL1        0.0309
     24 C         141.2975  144.9400  155.6838 C.3     1  UNL1        0.1106
     25 O         141.2551  144.7353  154.1984 O.3     1  UNL1       -0.3845
     26 C         142.3702  144.2833  156.5012 C.3     1  UNL1        0.0309
     27 C         142.4125  144.4879  157.9865 C.3     1  UNL1        0.0220
     28 H         140.5057  145.2256  153.8257 H       1  UNL1        0.2103
@<TRIPOS>BOND
     1     1     2    1
     2     2     3   am
     3     3     4    2
     4     3     5    1
     5     5     6   ar
     6     6     7    1
     7     6     8   ar
     8     8     9   ar
     9     9    10   ar
    10    10    11   ar
    11    11    12    1
    12    12    13    1
    13    13    14   ar
    14    14    15   ar
    15    15    19    1
    16    21    19    1
    17    21    22    1
    18    22    23    1
    19    23    24    1
    20    24    25    1
    21    24    26    1
    22    26    27    1
    23    15    16   ar
    24    16    17   ar
    25    17    18   ar
    26    18     2    1
    27    11     5   ar
    28    18    13   ar
    29    27    21    1
    30    19    20    1
    31    25    28    1
