@<TRIPOS>MOLECULE
*****
 32 35 0 0 0
SMALL
GASTEIGER

@<TRIPOS>ATOM
      1 C         141.5401  138.3044  158.0905 C.ar    1  UNL1        0.1535
      2 C         140.0807  138.5369  158.3478 C.ar    1  UNL1        0.0377
      3 C         139.5724  138.6263  159.7561 C.ar    1  UNL1        0.0239
      4 C         140.5234  138.4833  160.9073 C.ar    1  UNL1        0.1059
      5 N         141.9828  138.2509  160.6500 N.ar    1  UNL1       -0.1467
      6 N         142.4911  138.1615  159.2416 N.ar    1  UNL1       -0.1329
      7 C         140.0150  138.5728  162.3157 C.ar    1  UNL1        0.0531
      8 C         139.0567  139.6611  162.6994 C.ar    1  UNL1        0.0046
      9 C         138.5483  139.7505  164.1079 C.ar    1  UNL1        0.0000
     10 C         138.9983  138.7517  165.1325 C.ar    1  UNL1        0.0025
     11 C         139.9567  137.6634  164.7487 C.ar    1  UNL1        0.0365
     12 C         140.4650  137.5740  163.3403 C.ar    1  UNL1        0.1351
     13 O         141.4234  136.4857  162.9565 O.3     1  UNL1       -0.5055
     14 H         141.7045  135.8618  163.5966 H       1  UNL1        0.2922
     15 C         138.4900  138.8411  166.5409 C.2     1  UNL1        0.0250
     16 C         137.3224  138.0881  167.1063 C.2     1  UNL1        0.1194
     17 N         137.1707  138.4809  168.5460 N.2     1  UNL1       -0.1510
     18 N         138.2447  139.4767  168.8703 N.2     1  UNL1       -0.1695
     19 C         139.0600  139.6993  167.6311 C.3     1  UNL1        0.1771
     20 C         142.3690  139.4662  155.9195 C.3     1  UNL1        0.1135
     21 N         142.0484  138.2150  156.6821 N.pl3   1  UNL1       -0.2916
     22 C         142.2362  136.8742  156.0363 C.3     1  UNL1        0.0768
     23 C         142.8520  135.7477  156.8120 C.3     1  UNL1        0.0342
     24 C         143.0397  134.4069  156.1662 C.3     1  UNL1        0.0435
     25 C         143.4223  132.9669  155.9933 C.3     1  UNL1        0.0158
     26 C         143.6006  134.1211  157.5278 C.3     1  UNL1        0.0158
     27 N         142.6118  134.1926  154.7447 N.3     1  UNL1       -0.3015
     28 C         141.9960  135.3191  153.9688 C.3     1  UNL1        0.0435
     29 C         141.3700  136.0707  152.8316 C.3     1  UNL1        0.0158
     30 C         141.9664  134.2394  152.9281 C.3     1  UNL1        0.0158
     31 C         141.8082  136.6599  154.6146 C.3     1  UNL1        0.0342
     32 H         141.9300  133.4340  154.7536 H       1  UNL1        0.1231
@<TRIPOS>BOND
     1    20    21    1
     2    21     1    1
     3     1     2   ar
     4     2     3   ar
     5     3     4   ar
     6     4     7    1
     7     7     8   ar
     8     8     9   ar
     9     9    10   ar
    10    10    15    1
    11    15    16    2
    12    16    17    1
    13    17    18    2
    14    18    19    1
    15    10    11   ar
    16    11    12   ar
    17    12    13    1
    18     4     5   ar
    19     5     6   ar
    20    21    22    1
    21    22    23    1
    22    23    24    1
    23    24    25    1
    24    24    26    1
    25    24    27    1
    26    27    28    1
    27    28    29    1
    28    28    30    1
    29    28    31    1
    30     6     1   ar
    31    31    22    1
    32    12     7   ar
    33    19    15    1
    34    13    14    1
    35    27    32    1
@<TRIPOS>MOLECULE
*****
 32 35 0 0 0
SMALL
GASTEIGER

@<TRIPOS>ATOM
      1 C         138.7734  141.5728  160.7036 C.ar    1  UNL1        0.1535
      2 C         138.0492  142.5386  161.5939 C.ar    1  UNL1        0.0377
      3 C         138.2983  142.5266  163.0730 C.ar    1  UNL1        0.0239
      4 C         139.2716  141.5488  163.6617 C.ar    1  UNL1        0.1059
      5 N         139.9958  140.5830  162.7714 N.ar    1  UNL1       -0.1467
      6 N         139.7467  140.5950  161.2923 N.ar    1  UNL1       -0.1329
      7 C         139.5207  141.5368  165.1409 C.ar    1  UNL1        0.0531
      8 C         140.0590  142.7607  165.8208 C.ar    1  UNL1        0.0046
      9 C         140.3081  142.7487  167.2999 C.ar    1  UNL1        0.0000
     10 C         140.0189  141.5128  168.0992 C.ar    1  UNL1        0.0025
     11 C         139.4806  140.2888  167.4192 C.ar    1  UNL1        0.0365
     12 C         139.2316  140.3008  165.9402 C.ar    1  UNL1        0.1351
     13 O         138.6933  139.0769  165.2602 O.3     1  UNL1       -0.5055
     14 H         138.5126  138.3048  165.7595 H       1  UNL1        0.2922
     15 C         140.2680  141.5007  169.5783 C.2     1  UNL1        0.0250
     16 C         140.4329  140.2803  170.4347 C.2     1  UNL1        0.1194
     17 N         140.6627  140.7323  171.8464 N.2     1  UNL1       -0.1510
     18 N         140.6399  142.2321  171.8624 N.2     1  UNL1       -0.1695
     19 C         140.3960  142.7070  170.4606 C.3     1  UNL1        0.1771
     20 C         137.8082  140.4378  158.5751 C.3     1  UNL1        0.1135
     21 N         138.5242  141.5848  159.2244 N.pl3   1  UNL1       -0.2916
     22 C         138.9912  142.7438  158.3946 C.3     1  UNL1        0.0768
     23 C         138.2879  143.0803  157.1131 C.3     1  UNL1        0.0342
     24 C         138.7548  144.2394  156.2833 C.3     1  UNL1        0.0435
     25 C         138.8237  145.2325  155.1614 C.3     1  UNL1        0.0158
     26 C         137.6086  143.7617  155.4420 C.3     1  UNL1        0.0158
     27 N         139.9250  145.0620  156.7350 N.3     1  UNL1       -0.3015
     28 C         140.6283  144.7255  158.0165 C.3     1  UNL1        0.0435
     29 C         141.6124  144.8006  159.1460 C.3     1  UNL1        0.0158
     30 C         141.4370  145.9106  157.5790 C.3     1  UNL1        0.0158
     31 C         140.1614  143.5664  158.8463 C.3     1  UNL1        0.0342
     32 H         139.5928  146.0222  156.8247 H       1  UNL1        0.1231
@<TRIPOS>BOND
     1    20    21    1
     2    21     1    1
     3     1     2   ar
     4     2     3   ar
     5     3     4   ar
     6     4     7    1
     7     7     8   ar
     8     8     9   ar
     9     9    10   ar
    10    10    15    1
    11    15    16    2
    12    16    17    1
    13    17    18    2
    14    18    19    1
    15    10    11   ar
    16    11    12   ar
    17    12    13    1
    18     4     5   ar
    19     5     6   ar
    20    21    22    1
    21    22    23    1
    22    23    24    1
    23    24    25    1
    24    24    26    1
    25    24    27    1
    26    27    28    1
    27    28    29    1
    28    28    30    1
    29    28    31    1
    30     6     1   ar
    31    31    22    1
    32    12     7   ar
    33    19    15    1
    34    13    14    1
    35    27    32    1
@<TRIPOS>MOLECULE
*****
 32 35 0 0 0
SMALL
GASTEIGER

@<TRIPOS>ATOM
      1 C         138.7572  141.5211  160.7105 C.ar    1  UNL1        0.1535
      2 C         138.0654  142.5245  161.5848 C.ar    1  UNL1        0.0377
      3 C         138.3167  142.5302  163.0636 C.ar    1  UNL1        0.0239
      4 C         139.2597  141.5326  163.6680 C.ar    1  UNL1        0.1059
      5 N         139.9515  140.5291  162.7937 N.ar    1  UNL1       -0.1467
      6 N         139.7002  140.5234  161.3149 N.ar    1  UNL1       -0.1329
      7 C         139.5109  141.5383  165.1469 C.ar    1  UNL1        0.0531
      8 C         140.0633  142.7657  165.8090 C.ar    1  UNL1        0.0046
      9 C         140.3145  142.7715  167.2878 C.ar    1  UNL1        0.0000
     10 C         140.0133  141.5499  168.1045 C.ar    1  UNL1        0.0025
     11 C         139.4609  140.3225  167.4423 C.ar    1  UNL1        0.0365
     12 C         139.2097  140.3167  165.9635 C.ar    1  UNL1        0.1351
     13 O         138.6572  139.0894  165.3014 O.3     1  UNL1       -0.5055
     14 H         138.4691  138.3263  165.8115 H       1  UNL1        0.2922
     15 C         140.2645  141.5556  169.5833 C.2     1  UNL1        0.0250
     16 C         140.6644  140.3726  170.4143 C.2     1  UNL1        0.1194
     17 N         140.8069  140.8312  171.8353 N.2     1  UNL1       -0.1510
     18 N         140.4951  142.2977  171.8825 N.2     1  UNL1       -0.1695
     19 C         140.1599  142.7454  170.4907 C.3     1  UNL1        0.1771
     20 C         137.8241  140.3427  158.5913 C.3     1  UNL1        0.1135
     21 N         138.5060  141.5153  159.2316 N.pl3   1  UNL1       -0.2916
     22 C         138.9366  142.6821  158.3932 C.3     1  UNL1        0.0768
     23 C         140.0796  143.5449  158.8393 C.3     1  UNL1        0.0342
     24 C         140.5103  144.7118  158.0008 C.3     1  UNL1        0.0435
     25 C         141.2813  145.9186  157.5547 C.3     1  UNL1        0.0158
     26 C         141.4904  144.8269  159.1305 C.3     1  UNL1        0.0158
     27 N         139.7979  145.0158  156.7163 N.3     1  UNL1       -0.3015
     28 C         138.6549  144.1530  156.2701 C.3     1  UNL1        0.0435
     29 C         137.5252  143.6326  155.4317 C.3     1  UNL1        0.0158
     30 C         138.6932  145.1391  155.1405 C.3     1  UNL1        0.0158
     31 C         138.2242  142.9861  157.1086 C.3     1  UNL1        0.0342
     32 H         140.4987  144.9822  155.9759 H       1  UNL1        0.1231
@<TRIPOS>BOND
     1    20    21    1
     2    21     1    1
     3     1     2   ar
     4     2     3   ar
     5     3     4   ar
     6     4     7    1
     7     7     8   ar
     8     8     9   ar
     9     9    10   ar
    10    10    15    1
    11    15    16    2
    12    16    17    1
    13    17    18    2
    14    18    19    1
    15    10    11   ar
    16    11    12   ar
    17    12    13    1
    18     4     5   ar
    19     5     6   ar
    20    21    22    1
    21    22    23    1
    22    23    24    1
    23    24    25    1
    24    24    26    1
    25    24    27    1
    26    27    28    1
    27    28    29    1
    28    28    30    1
    29    28    31    1
    30     6     1   ar
    31    31    22    1
    32    12     7   ar
    33    19    15    1
    34    13    14    1
    35    27    32    1
@<TRIPOS>MOLECULE
*****
 32 35 0 0 0
SMALL
GASTEIGER

@<TRIPOS>ATOM
      1 C         142.0640  138.0140  158.1282 C.ar    1  UNL1        0.1535
      2 C         142.9843  137.7837  159.2900 C.ar    1  UNL1        0.0377
      3 C         142.4819  137.9638  160.6919 C.ar    1  UNL1        0.0239
      4 C         141.0592  138.3741  160.9318 C.ar    1  UNL1        0.1059
      5 N         140.1389  138.6044  159.7700 N.ar    1  UNL1       -0.1467
      6 N         140.6413  138.4244  158.3682 N.ar    1  UNL1       -0.1329
      7 C         140.5568  138.5541  162.3337 C.ar    1  UNL1        0.0531
      8 C         141.4423  139.1736  163.3740 C.ar    1  UNL1        0.0046
      9 C         140.9399  139.3536  164.7759 C.ar    1  UNL1        0.0000
     10 C         139.5521  138.9141  165.1375 C.ar    1  UNL1        0.0025
     11 C         138.6666  138.2946  164.0972 C.ar    1  UNL1        0.0365
     12 C         139.1690  138.1146  162.6953 C.ar    1  UNL1        0.1351
     13 O         138.2835  137.4950  161.6550 O.3     1  UNL1       -0.5055
     14 H         137.4166  137.2205  161.8809 H       1  UNL1        0.2922
     15 C         139.0497  139.0941  166.5393 C.2     1  UNL1        0.0250
     16 C         139.7560  139.8259  167.6419 C.2     1  UNL1        0.1194
     17 N         138.8956  139.7580  168.8687 N.2     1  UNL1       -0.1510
     18 N         137.6576  138.9842  168.5244 N.2     1  UNL1       -0.1695
     19 C         137.7528  138.5739  167.0847 C.3     1  UNL1        0.1771
     20 C         143.0140  139.0246  155.9313 C.3     1  UNL1        0.1135
     21 N         142.5663  137.8340  156.7263 N.pl3   1  UNL1       -0.2916
     22 C         142.6210  136.4634  156.1194 C.3     1  UNL1        0.0768
     23 C         142.1286  136.2426  154.7198 C.3     1  UNL1        0.0342
     24 C         142.1832  134.8720  154.1130 C.3     1  UNL1        0.0435
     25 C         142.0293  133.7675  153.1098 C.3     1  UNL1        0.0158
     26 C         141.5827  135.6383  152.9719 C.3     1  UNL1        0.0158
     27 N         142.7303  133.7220  154.9056 N.3     1  UNL1       -0.3015
     28 C         143.2227  133.9427  156.3053 C.3     1  UNL1        0.0435
     29 C         143.8042  133.6524  157.6571 C.3     1  UNL1        0.0158
     30 C         143.4793  132.4713  156.1679 C.3     1  UNL1        0.0158
     31 C         143.1681  135.3134  156.9121 C.3     1  UNL1        0.0342
     32 H         143.5144  133.3443  154.3737 H       1  UNL1        0.1231
@<TRIPOS>BOND
     1    20    21    1
     2    21     1    1
     3     1     2   ar
     4     2     3   ar
     5     3     4   ar
     6     4     7    1
     7     7     8   ar
     8     8     9   ar
     9     9    10   ar
    10    10    15    1
    11    15    16    2
    12    16    17    1
    13    17    18    2
    14    18    19    1
    15    10    11   ar
    16    11    12   ar
    17    12    13    1
    18     4     5   ar
    19     5     6   ar
    20    21    22    1
    21    22    23    1
    22    23    24    1
    23    24    25    1
    24    24    26    1
    25    24    27    1
    26    27    28    1
    27    28    29    1
    28    28    30    1
    29    28    31    1
    30     6     1   ar
    31    31    22    1
    32    12     7   ar
    33    19    15    1
    34    13    14    1
    35    27    32    1
@<TRIPOS>MOLECULE
*****
 32 35 0 0 0
SMALL
GASTEIGER

@<TRIPOS>ATOM
      1 C         139.4939  140.0649  160.7352 C.ar    1  UNL1        0.1535
      2 C         138.2994  139.8699  161.6212 C.ar    1  UNL1        0.0377
      3 C         138.4209  140.0817  163.1012 C.ar    1  UNL1        0.0239
      4 C         139.7369  140.4884  163.6951 C.ar    1  UNL1        0.1059
      5 N         140.9314  140.6834  162.8090 N.ar    1  UNL1       -0.1467
      6 N         140.8099  140.4717  161.3291 N.ar    1  UNL1       -0.1329
      7 C         139.8584  140.7002  165.1752 C.ar    1  UNL1        0.0531
      8 C         139.3258  139.6699  166.1264 C.ar    1  UNL1        0.0046
      9 C         139.4472  139.8817  167.6064 C.ar    1  UNL1        0.0000
     10 C         140.1013  141.1237  168.1352 C.ar    1  UNL1        0.0025
     11 C         140.6339  142.1540  167.1838 C.ar    1  UNL1        0.0365
     12 C         140.5124  141.9422  165.7039 C.ar    1  UNL1        0.1351
     13 O         141.0450  142.9725  164.7526 O.3     1  UNL1       -0.5055
     14 H         141.4536  143.7484  165.0828 H       1  UNL1        0.2922
     15 C         140.2228  141.3355  169.6151 C.2     1  UNL1        0.0250
     16 C         140.6278  140.3015  170.6235 C.2     1  UNL1        0.1194
     17 N         140.6159  140.9454  171.9782 N.2     1  UNL1       -0.1510
     18 N         140.2035  142.3775  171.8070 N.2     1  UNL1       -0.1695
     19 C         139.9606  142.6185  170.3466 C.3     1  UNL1        0.1771
     20 C         139.6201  138.4948  158.6690 C.3     1  UNL1        0.1135
     21 N         139.3724  139.8532  159.2551 N.pl3   1  UNL1       -0.2916
     22 C         139.0033  140.9998  158.3612 C.3     1  UNL1        0.0768
     23 C         137.7393  140.9458  157.5554 C.3     1  UNL1        0.0342
     24 C         137.3702  142.0924  156.6616 C.3     1  UNL1        0.0435
     25 C         136.5970  142.9222  155.6799 C.3     1  UNL1        0.0158
     26 C         136.2068  141.1800  156.4087 C.3     1  UNL1        0.0158
     27 N         138.2650  143.2930  156.5735 N.3     1  UNL1       -0.3015
     28 C         139.5291  143.3470  157.3794 C.3     1  UNL1        0.0435
     29 C         140.8207  143.8612  157.9427 C.3     1  UNL1        0.0158
     30 C         139.6085  144.6722  156.6812 C.3     1  UNL1        0.0158
     31 C         139.8982  142.2004  158.2732 C.3     1  UNL1        0.0342
     32 H         137.7046  144.0989  156.8506 H       1  UNL1        0.1231
@<TRIPOS>BOND
     1    20    21    1
     2    21     1    1
     3     1     2   ar
     4     2     3   ar
     5     3     4   ar
     6     4     7    1
     7     7     8   ar
     8     8     9   ar
     9     9    10   ar
    10    10    15    1
    11    15    16    2
    12    16    17    1
    13    17    18    2
    14    18    19    1
    15    10    11   ar
    16    11    12   ar
    17    12    13    1
    18     4     5   ar
    19     5     6   ar
    20    21    22    1
    21    22    23    1
    22    23    24    1
    23    24    25    1
    24    24    26    1
    25    24    27    1
    26    27    28    1
    27    28    29    1
    28    28    30    1
    29    28    31    1
    30     6     1   ar
    31    31    22    1
    32    12     7   ar
    33    19    15    1
    34    13    14    1
    35    27    32    1
@<TRIPOS>MOLECULE
*****
 32 35 0 0 0
SMALL
GASTEIGER

@<TRIPOS>ATOM
      1 C         142.4114  142.9394  160.5967 C.ar    1  UNL1        0.1535
      2 C         143.5591  143.2305  161.5174 C.ar    1  UNL1        0.0377
      3 C         143.3727  143.1323  163.0025 C.ar    1  UNL1        0.0239
      4 C         142.0385  142.7430  163.5669 C.ar    1  UNL1        0.1059
      5 N         140.8908  142.4519  162.6461 N.ar    1  UNL1       -0.1467
      6 N         141.0772  142.5501  161.1610 N.ar    1  UNL1       -0.1329
      7 C         141.8521  142.6448  165.0520 C.ar    1  UNL1        0.0531
      8 C         142.9878  142.1944  165.9223 C.ar    1  UNL1        0.0046
      9 C         142.8014  142.0962  167.4075 C.ar    1  UNL1        0.0000
     10 C         141.4793  142.4485  168.0223 C.ar    1  UNL1        0.0025
     11 C         140.3437  142.8990  167.1520 C.ar    1  UNL1        0.0365
     12 C         140.5301  142.9971  165.6669 C.ar    1  UNL1        0.1351
     13 O         139.3944  143.4476  164.7966 O.3     1  UNL1       -0.5055
     14 H         138.5686  143.6677  165.1806 H       1  UNL1        0.2922
     15 C         141.2929  142.3504  169.5074 C.2     1  UNL1        0.0250
     16 C         140.0035  142.5441  170.2489 C.2     1  UNL1        0.1194
     17 N         140.2768  142.3547  171.7116 N.2     1  UNL1       -0.1510
     18 N         141.7353  142.0440  171.8741 N.2     1  UNL1       -0.1695
     19 C         142.3633  142.0413  170.5118 C.3     1  UNL1        0.1771
     20 C         142.3118  144.3286  158.4034 C.3     1  UNL1        0.1135
     21 N         142.5977  143.0375  159.1115 N.pl3   1  UNL1       -0.2916
     22 C         143.0700  141.8446  158.3344 C.3     1  UNL1        0.0768
     23 C         144.2364  141.9720  157.3999 C.3     1  UNL1        0.0342
     24 C         144.7087  140.7790  156.6229 C.3     1  UNL1        0.0435
     25 C         145.5198  139.9439  155.6771 C.3     1  UNL1        0.0158
     26 C         145.6845  141.8094  156.1370 C.3     1  UNL1        0.0158
     27 N         144.0146  139.4587  156.7803 N.3     1  UNL1       -0.3015
     28 C         142.8481  139.3312  157.7148 C.3     1  UNL1        0.0435
     29 C         141.7082  138.7152  158.4706 C.3     1  UNL1        0.0158
     30 C         142.9245  137.9244  157.2002 C.3     1  UNL1        0.0158
     31 C         142.3758  140.5242  158.4919 C.3     1  UNL1        0.0342
     32 H         144.7188  138.7916  157.0957 H       1  UNL1        0.1231
@<TRIPOS>BOND
     1    20    21    1
     2    21     1    1
     3     1     2   ar
     4     2     3   ar
     5     3     4   ar
     6     4     7    1
     7     7     8   ar
     8     8     9   ar
     9     9    10   ar
    10    10    15    1
    11    15    16    2
    12    16    17    1
    13    17    18    2
    14    18    19    1
    15    10    11   ar
    16    11    12   ar
    17    12    13    1
    18     4     5   ar
    19     5     6   ar
    20    21    22    1
    21    22    23    1
    22    23    24    1
    23    24    25    1
    24    24    26    1
    25    24    27    1
    26    27    28    1
    27    28    29    1
    28    28    30    1
    29    28    31    1
    30     6     1   ar
    31    31    22    1
    32    12     7   ar
    33    19    15    1
    34    13    14    1
    35    27    32    1
@<TRIPOS>MOLECULE
*****
 32 35 0 0 0
SMALL
GASTEIGER

@<TRIPOS>ATOM
      1 C         143.3325  142.7508  160.7290 C.ar    1  UNL1        0.1535
      2 C         144.1994  143.4609  161.7260 C.ar    1  UNL1        0.0377
      3 C         143.8644  143.4028  163.1869 C.ar    1  UNL1        0.0239
      4 C         142.6625  142.6345  163.6508 C.ar    1  UNL1        0.1059
      5 N         141.7956  141.9244  162.6538 N.ar    1  UNL1       -0.1467
      6 N         142.1306  141.9825  161.1929 N.ar    1  UNL1       -0.1329
      7 C         142.3276  142.5764  165.1119 C.ar    1  UNL1        0.0531
      8 C         143.4109  142.3341  166.1206 C.ar    1  UNL1        0.0046
      9 C         143.0759  142.2760  167.5816 C.ar    1  UNL1        0.0000
     10 C         141.6576  142.4602  168.0338 C.ar    1  UNL1        0.0025
     11 C         140.5743  142.7026  167.0249 C.ar    1  UNL1        0.0365
     12 C         140.9092  142.7607  165.5640 C.ar    1  UNL1        0.1351
     13 O         139.8259  143.0030  164.5552 O.3     1  UNL1       -0.5055
     14 H         138.9399  143.1181  164.8376 H       1  UNL1        0.2922
     15 C         141.3226  142.4022  169.4947 C.2     1  UNL1        0.0250
     16 C         142.3000  142.2115  170.6165 C.2     1  UNL1        0.1194
     17 N         141.5329  142.2160  171.9055 N.2     1  UNL1       -0.1510
     18 N         140.0813  142.4095  171.5803 N.2     1  UNL1       -0.1695
     19 C         139.9514  142.5246  170.0904 C.3     1  UNL1        0.1771
     20 C         144.8361  142.0341  158.7350 C.3     1  UNL1        0.1135
     21 N         143.6674  142.8088  159.2680 N.pl3   1  UNL1       -0.2916
     22 C         142.8337  143.6417  158.3399 C.3     1  UNL1        0.0768
     23 C         141.7618  144.5341  158.8916 C.3     1  UNL1        0.0342
     24 C         140.9280  145.3670  157.9636 C.3     1  UNL1        0.0435
     25 C         139.8859  146.3376  157.4927 C.3     1  UNL1        0.0158
     26 C         140.3278  145.7636  159.2798 C.3     1  UNL1        0.0158
     27 N         141.1663  145.3075  156.4839 N.3     1  UNL1       -0.3015
     28 C         142.2384  144.4150  155.9321 C.3     1  UNL1        0.0435
     29 C         143.1281  143.7291  154.9382 C.3     1  UNL1        0.0158
     30 C         141.7137  145.0097  154.6589 C.3     1  UNL1        0.0158
     31 C         143.0721  143.5822  156.8601 C.3     1  UNL1        0.0342
     32 H         141.3894  146.2563  156.1831 H       1  UNL1        0.1231
@<TRIPOS>BOND
     1    20    21    1
     2    21     1    1
     3     1     2   ar
     4     2     3   ar
     5     3     4   ar
     6     4     7    1
     7     7     8   ar
     8     8     9   ar
     9     9    10   ar
    10    10    15    1
    11    15    16    2
    12    16    17    1
    13    17    18    2
    14    18    19    1
    15    10    11   ar
    16    11    12   ar
    17    12    13    1
    18     4     5   ar
    19     5     6   ar
    20    21    22    1
    21    22    23    1
    22    23    24    1
    23    24    25    1
    24    24    26    1
    25    24    27    1
    26    27    28    1
    27    28    29    1
    28    28    30    1
    29    28    31    1
    30     6     1   ar
    31    31    22    1
    32    12     7   ar
    33    19    15    1
    34    13    14    1
    35    27    32    1
@<TRIPOS>MOLECULE
*****
 32 35 0 0 0
SMALL
GASTEIGER

@<TRIPOS>ATOM
      1 C         142.1707  143.0817  160.6076 C.ar    1  UNL1        0.1535
      2 C         141.7698  144.2789  161.4175 C.ar    1  UNL1        0.0377
      3 C         141.6128  144.1601  162.9045 C.ar    1  UNL1        0.0239
      4 C         141.8567  142.8440  163.5816 C.ar    1  UNL1        0.1059
      5 N         142.2576  141.6468  162.7717 N.ar    1  UNL1       -0.1467
      6 N         142.4146  141.7657  161.2847 N.ar    1  UNL1       -0.1329
      7 C         141.6996  142.7252  165.0687 C.ar    1  UNL1        0.0531
      8 C         140.3976  143.0918  165.7170 C.ar    1  UNL1        0.0046
      9 C         140.2406  142.9729  167.2040 C.ar    1  UNL1        0.0000
     10 C         141.3856  142.4876  168.0427 C.ar    1  UNL1        0.0025
     11 C         142.6876  142.1210  167.3943 C.ar    1  UNL1        0.0365
     12 C         142.8446  142.2398  165.9073 C.ar    1  UNL1        0.1351
     13 O         144.1467  141.8733  165.2589 O.3     1  UNL1       -0.5055
     14 H         144.8619  141.5700  165.7828 H       1  UNL1        0.2922
     15 C         141.2286  142.3687  169.5297 C.2     1  UNL1        0.0250
     16 C         142.3208  142.0576  170.5096 C.2     1  UNL1        0.1194
     17 N         141.7191  142.0367  171.8834 N.2     1  UNL1       -0.1510
     18 N         140.2548  142.3350  171.7526 N.2     1  UNL1       -0.1695
     19 C         139.9517  142.5402  170.2979 C.3     1  UNL1        0.1771
     20 C         143.6816  143.0425  158.4944 C.3     1  UNL1        0.1135
     21 N         142.3278  143.2006  159.1206 N.pl3   1  UNL1       -0.2916
     22 C         141.1310  143.4774  158.2598 C.3     1  UNL1        0.0768
     23 C         139.9418  142.5648  158.3128 C.3     1  UNL1        0.0342
     24 C         138.7449  142.8417  157.4520 C.3     1  UNL1        0.0435
     25 C         137.3870  142.6868  156.8340 C.3     1  UNL1        0.0158
     26 C         138.2809  141.5984  158.1512 C.3     1  UNL1        0.0158
     27 N         138.7373  144.0311  156.5382 N.3     1  UNL1       -0.3015
     28 C         139.9266  144.9438  156.4851 C.3     1  UNL1        0.0435
     29 C         140.8063  146.0909  156.0849 C.3     1  UNL1        0.0158
     30 C         139.0353  145.6190  155.4853 C.3     1  UNL1        0.0158
     31 C         141.1234  144.6670  157.3459 C.3     1  UNL1        0.0342
     32 H         137.9380  144.6045  156.8078 H       1  UNL1        0.1231
@<TRIPOS>BOND
     1    20    21    1
     2    21     1    1
     3     1     2   ar
     4     2     3   ar
     5     3     4   ar
     6     4     7    1
     7     7     8   ar
     8     8     9   ar
     9     9    10   ar
    10    10    15    1
    11    15    16    2
    12    16    17    1
    13    17    18    2
    14    18    19    1
    15    10    11   ar
    16    11    12   ar
    17    12    13    1
    18     4     5   ar
    19     5     6   ar
    20    21    22    1
    21    22    23    1
    22    23    24    1
    23    24    25    1
    24    24    26    1
    25    24    27    1
    26    27    28    1
    27    28    29    1
    28    28    30    1
    29    28    31    1
    30     6     1   ar
    31    31    22    1
    32    12     7   ar
    33    19    15    1
    34    13    14    1
    35    27    32    1
@<TRIPOS>MOLECULE
*****
 32 35 0 0 0
SMALL
GASTEIGER

@<TRIPOS>ATOM
      1 C         142.1958  143.1305  160.6071 C.ar    1  UNL1        0.1535
      2 C         142.4796  141.8232  161.2857 C.ar    1  UNL1        0.0377
      3 C         142.3300  141.7024  162.7733 C.ar    1  UNL1        0.0239
      4 C         141.8966  142.8888  163.5823 C.ar    1  UNL1        0.1059
      5 N         141.6128  144.1961  162.9038 N.ar    1  UNL1       -0.1467
      6 N         141.7624  144.3169  161.4162 N.ar    1  UNL1       -0.1329
      7 C         141.7469  142.7679  165.0700 C.ar    1  UNL1        0.0531
      8 C         142.9261  142.3836  165.9136 C.ar    1  UNL1        0.0046
      9 C         142.7765  142.2627  167.4013 C.ar    1  UNL1        0.0000
     10 C         141.4477  142.5262  168.0452 C.ar    1  UNL1        0.0025
     11 C         140.2684  142.9106  167.2015 C.ar    1  UNL1        0.0365
     12 C         140.4181  143.0314  165.7140 C.ar    1  UNL1        0.1351
     13 O         139.2388  143.4158  164.8703 O.3     1  UNL1       -0.5055
     14 H         138.4087  143.5804  165.2725 H       1  UNL1        0.2922
     15 C         141.2980  142.4053  169.5328 C.2     1  UNL1        0.0250
     16 C         142.4102  142.1915  170.5164 C.2     1  UNL1        0.1194
     17 N         141.8094  142.1311  171.8895 N.2     1  UNL1       -0.1510
     18 N         140.3259  142.3076  171.7545 N.2     1  UNL1       -0.1695
     19 C         140.0099  142.4771  170.2980 C.3     1  UNL1        0.1771
     20 C         143.7000  143.1199  158.4888 C.3     1  UNL1        0.1135
     21 N         142.3455  143.2514  159.1195 N.pl3   1  UNL1       -0.2916
     22 C         141.1405  143.5037  158.2626 C.3     1  UNL1        0.0768
     23 C         141.1029  144.6964  157.3537 C.3     1  UNL1        0.0342
     24 C         139.8979  144.9488  156.4968 C.3     1  UNL1        0.0435
     25 C         138.9888  145.6071  155.5019 C.3     1  UNL1        0.0158
     26 C         140.7497  146.1177  156.0993 C.3     1  UNL1        0.0158
     27 N         138.7305  144.0085  156.5488 N.3     1  UNL1       -0.3015
     28 C         138.7679  142.8157  157.4577 C.3     1  UNL1        0.0435
     29 C         138.3347  141.5591  158.1528 C.3     1  UNL1        0.0158
     30 C         137.4125  142.6317  156.8422 C.3     1  UNL1        0.0158
     31 C         139.9729  142.5633  158.3146 C.3     1  UNL1        0.0342
     32 H         138.5962  143.6532  155.6021 H       1  UNL1        0.1231
@<TRIPOS>BOND
     1    20    21    1
     2    21     1    1
     3     1     2   ar
     4     2     3   ar
     5     3     4   ar
     6     4     7    1
     7     7     8   ar
     8     8     9   ar
     9     9    10   ar
    10    10    15    1
    11    15    16    2
    12    16    17    1
    13    17    18    2
    14    18    19    1
    15    10    11   ar
    16    11    12   ar
    17    12    13    1
    18     4     5   ar
    19     5     6   ar
    20    21    22    1
    21    22    23    1
    22    23    24    1
    23    24    25    1
    24    24    26    1
    25    24    27    1
    26    27    28    1
    27    28    29    1
    28    28    30    1
    29    28    31    1
    30     6     1   ar
    31    31    22    1
    32    12     7   ar
    33    19    15    1
    34    13    14    1
    35    27    32    1
