@<TRIPOS>MOLECULE
*****
 27 29 0 0 0
SMALL
GASTEIGER

@<TRIPOS>ATOM
      1 C         143.1044  140.2869  165.6643 C.ar    1  UNL1        0.0617
      2 C         143.9664  140.2191  164.4386 C.ar    1  UNL1        0.0326
      3 C         144.5978  141.5653  164.2410 C.ar    1  UNL1        0.0977
      4 N         144.1260  142.4651  165.3445 N.ar    1  UNL1       -0.1683
      5 N         143.2030  141.6751  166.2242 N.ar    1  UNL1       -0.2340
      6 C         142.5018  142.1838  167.4486 C.ar    1  UNL1        0.0824
      7 C         143.2628  142.3633  168.7287 C.ar    1  UNL1        0.0191
      8 C         142.5616  142.8720  169.9532 C.ar    1  UNL1        0.0015
      9 C         141.0993  143.2012  169.8977 C.ar    1  UNL1        0.0001
     10 C         140.3381  143.0217  168.6176 C.ar    1  UNL1        0.0015
     11 C         141.0394  142.5130  167.3931 C.ar    1  UNL1        0.0191
     12 C         142.2872  139.1638  166.2307 C.3     1  UNL1        0.0459
     13 C         139.7707  139.3070  165.6008 C.3     1  UNL1        0.0004
     14 C         141.1066  138.6374  165.4697 C.3     1  UNL1        0.0059
     15 C         141.2618  137.4415  164.5777 C.3     1  UNL1        0.0004
     16 C         145.5363  141.9451  163.1341 C.3     1  UNL1        0.1387
     17 N         145.0075  142.6086  161.8971 N.3     1  UNL1       -0.1733
     18 H         144.8759  141.8737  161.2021 H       1  UNL1        0.1492
     19 S         143.7264  143.3866  161.9526 S.O2    1  UNL1        0.0606
     20 O         142.9808  142.1966  161.4255 O.2     1  UNL1       -0.1530
     21 O         144.4719  144.5767  162.4796 O.2     1  UNL1       -0.1530
     22 C         142.4451  144.1648  162.0081 C.ar    1  UNL1        0.1220
     23 C         141.7611  144.5749  160.7377 C.ar    1  UNL1        0.0199
     24 C         140.4799  145.3530  160.7933 C.ar    1  UNL1        0.0014
     25 C         139.8828  145.7210  162.1192 C.ar    1  UNL1        0.0001
     26 C         140.5668  145.3109  163.3895 C.ar    1  UNL1        0.0014
     27 C         141.8480  144.5328  163.3340 C.ar    1  UNL1        0.0199
@<TRIPOS>BOND
     1    13    14    1
     2    14    15    1
     3    14    12    1
     4    12     1    1
     5     1     2   ar
     6     2     3   ar
     7     3    16    1
     8    16    17    1
     9    17    19    1
    10    19    20    2
    11    19    21    2
    12    19    22    1
    13    22    23   ar
    14    23    24   ar
    15    24    25   ar
    16    25    26   ar
    17    26    27   ar
    18     3     4   ar
    19     4     5   ar
    20     5     6    1
    21     6     7   ar
    22     7     8   ar
    23     8     9   ar
    24     9    10   ar
    25    10    11   ar
    26     5     1   ar
    27    11     6   ar
    28    27    22   ar
    29    17    18    1
@<TRIPOS>MOLECULE
*****
 27 29 0 0 0
SMALL
GASTEIGER

@<TRIPOS>ATOM
      1 C         143.1020  140.2890  165.6352 C.ar    1  UNL1        0.0617
      2 C         143.9684  140.2182  164.4126 C.ar    1  UNL1        0.0326
      3 C         144.6132  141.5593  164.2233 C.ar    1  UNL1        0.0977
      4 N         144.1455  142.4588  165.3288 N.ar    1  UNL1       -0.1683
      5 N         143.2116  141.6738  166.2014 N.ar    1  UNL1       -0.2340
      6 C         142.5103  142.1839  167.4252 C.ar    1  UNL1        0.0824
      7 C         141.0547  142.5405  167.3618 C.ar    1  UNL1        0.0191
      8 C         140.3534  143.0506  168.5856 C.ar    1  UNL1        0.0015
      9 C         141.1077  143.2042  169.8731 C.ar    1  UNL1        0.0001
     10 C         142.5633  142.8476  169.9366 C.ar    1  UNL1        0.0015
     11 C         143.2646  142.3374  168.7126 C.ar    1  UNL1        0.0191
     12 C         142.2720  139.1713  166.1935 C.3     1  UNL1        0.0459
     13 C         141.2356  137.4236  164.5745 C.3     1  UNL1        0.0004
     14 C         141.0948  138.6535  165.4216 C.3     1  UNL1        0.0059
     15 C         139.7767  139.3655  165.4967 C.3     1  UNL1        0.0004
     16 C         145.5597  141.9348  163.1218 C.3     1  UNL1        0.1387
     17 N         145.0434  142.6158  161.8891 N.3     1  UNL1       -0.1733
     18 H         144.9247  141.8918  161.1805 H       1  UNL1        0.1492
     19 S         143.7574  143.3861  161.9406 S.O2    1  UNL1        0.0606
     20 O         144.4937  144.5799  162.4723 O.2     1  UNL1       -0.1530
     21 O         143.0210  142.1924  161.4089 O.2     1  UNL1       -0.1530
     22 C         142.4712  144.1564  161.9922 C.ar    1  UNL1        0.1220
     23 C         141.8998  144.5743  163.3145 C.ar    1  UNL1        0.0199
     24 C         140.6137  145.3446  163.3660 C.ar    1  UNL1        0.0014
     25 C         139.8991  145.6970  162.0951 C.ar    1  UNL1        0.0001
     26 C         140.4706  145.2791  160.7727 C.ar    1  UNL1        0.0014
     27 C         141.7567  144.5088  160.7213 C.ar    1  UNL1        0.0199
@<TRIPOS>BOND
     1    13    14    1
     2    14    15    1
     3    14    12    1
     4    12     1    1
     5     1     2   ar
     6     2     3   ar
     7     3    16    1
     8    16    17    1
     9    17    19    1
    10    19    20    2
    11    19    21    2
    12    19    22    1
    13    22    23   ar
    14    23    24   ar
    15    24    25   ar
    16    25    26   ar
    17    26    27   ar
    18     3     4   ar
    19     4     5   ar
    20     5     6    1
    21     6     7   ar
    22     7     8   ar
    23     8     9   ar
    24     9    10   ar
    25    10    11   ar
    26     5     1   ar
    27    11     6   ar
    28    27    22   ar
    29    17    18    1
@<TRIPOS>MOLECULE
*****
 27 29 0 0 0
SMALL
GASTEIGER

@<TRIPOS>ATOM
      1 C         139.4479  141.4598  165.6745 C.ar    1  UNL1        0.0617
      2 C         138.6223  141.8867  164.4970 C.ar    1  UNL1        0.0326
      3 C         138.6795  143.3830  164.4090 C.ar    1  UNL1        0.0977
      4 N         139.5403  143.8810  165.5319 N.ar    1  UNL1       -0.1683
      5 N         140.0152  142.6924  166.3140 N.ar    1  UNL1       -0.2340
      6 C         140.9018  142.7298  167.5233 C.ar    1  UNL1        0.0824
      7 C         140.3885  143.2997  168.8124 C.ar    1  UNL1        0.0191
      8 C         141.2751  143.3371  170.0217 C.ar    1  UNL1        0.0015
      9 C         142.6751  142.8046  169.9420 C.ar    1  UNL1        0.0001
     10 C         143.1886  142.2347  168.6529 C.ar    1  UNL1        0.0015
     11 C         142.3019  142.1974  167.4436 C.ar    1  UNL1        0.0191
     12 C         139.6675  140.0483  166.1320 C.3     1  UNL1        0.0459
     13 C         139.1659  139.8710  168.6750 C.3     1  UNL1        0.0004
     14 C         138.8505  139.4895  167.2590 C.3     1  UNL1        0.0059
     15 C         137.7181  138.5492  166.9701 C.3     1  UNL1        0.0004
     16 C         137.9957  144.2323  163.3787 C.3     1  UNL1        0.1387
     17 N         138.7705  144.7606  162.2080 N.3     1  UNL1       -0.1733
     18 H         138.7495  145.7781  162.2761 H       1  UNL1        0.1492
     19 S         140.2062  144.3687  162.0204 S.O2    1  UNL1        0.0606
     20 O         139.7728  143.1242  161.3040 O.2     1  UNL1       -0.1530
     21 O         140.6396  145.6132  162.7368 O.2     1  UNL1       -0.1530
     22 C         141.6419  143.9768  161.8328 C.ar    1  UNL1        0.1220
     23 C         142.0390  143.1182  160.6687 C.ar    1  UNL1        0.0199
     24 C         143.4747  142.7263  160.4811 C.ar    1  UNL1        0.0014
     25 C         144.5133  143.1931  161.4576 C.ar    1  UNL1        0.0001
     26 C         144.1162  144.0518  162.6216 C.ar    1  UNL1        0.0014
     27 C         142.6805  144.4436  162.8092 C.ar    1  UNL1        0.0199
@<TRIPOS>BOND
     1    13    14    1
     2    14    15    1
     3    14    12    1
     4    12     1    1
     5     1     2   ar
     6     2     3   ar
     7     3    16    1
     8    16    17    1
     9    17    19    1
    10    19    20    2
    11    19    21    2
    12    19    22    1
    13    22    23   ar
    14    23    24   ar
    15    24    25   ar
    16    25    26   ar
    17    26    27   ar
    18     3     4   ar
    19     4     5   ar
    20     5     6    1
    21     6     7   ar
    22     7     8   ar
    23     8     9   ar
    24     9    10   ar
    25    10    11   ar
    26     5     1   ar
    27    11     6   ar
    28    27    22   ar
    29    17    18    1
@<TRIPOS>MOLECULE
*****
 27 29 0 0 0
SMALL
GASTEIGER

@<TRIPOS>ATOM
      1 C         138.7104  139.9292  164.8096 C.ar    1  UNL1        0.0617
      2 C         137.9300  140.7770  163.8491 C.ar    1  UNL1        0.0326
      3 C         138.1156  142.2127  164.2418 C.ar    1  UNL1        0.0977
      4 N         139.0106  142.2524  165.4449 N.ar    1  UNL1       -0.1683
      5 N         139.3782  140.8411  165.7958 N.ar    1  UNL1       -0.2340
      6 C         140.2589  140.4163  166.9332 C.ar    1  UNL1        0.0824
      7 C         139.7073  140.3552  168.3267 C.ar    1  UNL1        0.0191
      8 C         140.5880  139.9304  169.4641 C.ar    1  UNL1        0.0015
      9 C         142.0205  139.5666  169.2081 C.ar    1  UNL1        0.0001
     10 C         142.5723  139.6277  167.8145 C.ar    1  UNL1        0.0015
     11 C         141.6914  140.0525  166.6771 C.ar    1  UNL1        0.0191
     12 C         138.8061  138.4324  164.7877 C.3     1  UNL1        0.0459
     13 C         141.0296  137.1158  164.5180 C.3     1  UNL1        0.0004
     14 C         139.8184  137.7584  163.9096 C.3     1  UNL1        0.0059
     15 C         139.6196  137.7271  162.4232 C.3     1  UNL1        0.0004
     16 C         137.5121  143.4004  163.5523 C.3     1  UNL1        0.1387
     17 N         138.2786  144.1136  162.4782 N.3     1  UNL1       -0.1733
     18 H         137.9536  145.0804  162.4770 H       1  UNL1        0.1492
     19 S         139.7769  144.1606  162.5312 S.O2    1  UNL1        0.0606
     20 O         139.7061  145.1266  163.6765 O.2     1  UNL1       -0.1530
     21 O         139.8477  143.1945  161.3860 O.2     1  UNL1       -0.1530
     22 C         141.2753  144.2075  162.5843 C.ar    1  UNL1        0.1220
     23 C         142.0857  143.3593  161.6496 C.ar    1  UNL1        0.0199
     24 C         143.5840  143.4062  161.7027 C.ar    1  UNL1        0.0014
     25 C         144.2719  144.3015  162.6903 C.ar    1  UNL1        0.0001
     26 C         143.4614  145.1497  163.6250 C.ar    1  UNL1        0.0014
     27 C         141.9631  145.1027  163.5719 C.ar    1  UNL1        0.0199
@<TRIPOS>BOND
     1    13    14    1
     2    14    15    1
     3    14    12    1
     4    12     1    1
     5     1     2   ar
     6     2     3   ar
     7     3    16    1
     8    16    17    1
     9    17    19    1
    10    19    20    2
    11    19    21    2
    12    19    22    1
    13    22    23   ar
    14    23    24   ar
    15    24    25   ar
    16    25    26   ar
    17    26    27   ar
    18     3     4   ar
    19     4     5   ar
    20     5     6    1
    21     6     7   ar
    22     7     8   ar
    23     8     9   ar
    24     9    10   ar
    25    10    11   ar
    26     5     1   ar
    27    11     6   ar
    28    27    22   ar
    29    17    18    1
@<TRIPOS>MOLECULE
*****
 27 29 0 0 0
SMALL
GASTEIGER

@<TRIPOS>ATOM
      1 C         139.1244  139.3983  165.6712 C.ar    1  UNL1        0.0617
      2 C         139.5107  138.1184  164.9907 C.ar    1  UNL1        0.0326
      3 C         139.8850  138.4413  163.5745 C.ar    1  UNL1        0.0977
      4 N         139.7301  139.9204  163.3797 N.ar    1  UNL1       -0.1683
      5 N         139.2600  140.5119  164.6755 N.ar    1  UNL1       -0.2340
      6 C         138.9755  141.9623  164.9308 C.ar    1  UNL1        0.0824
      7 C         137.7621  142.6061  164.3280 C.ar    1  UNL1        0.0191
      8 C         137.4776  144.0565  164.5833 C.ar    1  UNL1        0.0015
      9 C         138.4065  144.8633  165.4414 C.ar    1  UNL1        0.0001
     10 C         139.6200  144.2196  166.0442 C.ar    1  UNL1        0.0015
     11 C         139.9044  142.7691  165.7888 C.ar    1  UNL1        0.0191
     12 C         138.6805  139.5396  167.0970 C.3     1  UNL1        0.0459
     13 C         139.1707  140.3867  169.5036 C.3     1  UNL1        0.0004
     14 C         139.6600  139.9701  168.1483 C.3     1  UNL1        0.0059
     15 C         141.1288  139.9839  167.8443 C.3     1  UNL1        0.0004
     16 C         140.3352  137.4574  162.5355 C.3     1  UNL1        0.1387
     17 N         141.7986  137.2685  162.2657 N.3     1  UNL1       -0.1733
     18 H         141.8830  136.9736  161.2929 H       1  UNL1        0.1492
     19 S         142.7500  138.4125  162.4555 S.O2    1  UNL1        0.0606
     20 O         142.5467  138.8187  161.0260 O.2     1  UNL1       -0.1530
     21 O         142.9534  138.0062  163.8850 O.2     1  UNL1       -0.1530
     22 C         143.7015  139.5565  162.6453 C.ar    1  UNL1        0.1220
     23 C         144.5415  139.6355  163.8855 C.ar    1  UNL1        0.0199
     24 C         145.4930  140.7794  164.0753 C.ar    1  UNL1        0.0014
     25 C         145.6044  141.8444  163.0248 C.ar    1  UNL1        0.0001
     26 C         144.7644  141.7655  161.7847 C.ar    1  UNL1        0.0014
     27 C         143.8130  140.6215  161.5949 C.ar    1  UNL1        0.0199
@<TRIPOS>BOND
     1    13    14    1
     2    14    15    1
     3    14    12    1
     4    12     1    1
     5     1     2   ar
     6     2     3   ar
     7     3    16    1
     8    16    17    1
     9    17    19    1
    10    19    20    2
    11    19    21    2
    12    19    22    1
    13    22    23   ar
    14    23    24   ar
    15    24    25   ar
    16    25    26   ar
    17    26    27   ar
    18     3     4   ar
    19     4     5   ar
    20     5     6    1
    21     6     7   ar
    22     7     8   ar
    23     8     9   ar
    24     9    10   ar
    25    10    11   ar
    26     5     1   ar
    27    11     6   ar
    28    27    22   ar
    29    17    18    1
@<TRIPOS>MOLECULE
*****
 27 29 0 0 0
SMALL
GASTEIGER

@<TRIPOS>ATOM
      1 C         140.9888  139.4135  165.2320 C.ar    1  UNL1        0.0617
      2 C         140.5124  138.8937  163.9080 C.ar    1  UNL1        0.0326
      3 C         139.0554  139.2254  163.7769 C.ar    1  UNL1        0.0977
      4 N         138.6313  139.9502  165.0198 N.ar    1  UNL1       -0.1683
      5 N         139.8261  140.0665  165.9191 N.ar    1  UNL1       -0.2340
      6 C         139.8536  140.7208  167.2685 C.ar    1  UNL1        0.0824
      7 C         140.4489  142.0885  167.4270 C.ar    1  UNL1        0.0191
      8 C         140.4763  142.7428  168.7764 C.ar    1  UNL1        0.0015
      9 C         139.9085  142.0295  169.9675 C.ar    1  UNL1        0.0001
     10 C         139.3131  140.6618  169.8091 C.ar    1  UNL1        0.0015
     11 C         139.2857  140.0075  168.4596 C.ar    1  UNL1        0.0191
     12 C         142.3829  139.3003  165.7738 C.3     1  UNL1        0.0459
     13 C         143.4706  141.6115  165.2992 C.3     1  UNL1        0.0004
     14 C         143.4891  140.1168  165.1741 C.3     1  UNL1        0.0059
     15 C         144.6139  139.4387  164.4495 C.3     1  UNL1        0.0004
     16 C         138.1768  138.8909  162.6080 C.3     1  UNL1        0.1387
     17 N         137.4588  139.9835  161.8726 N.3     1  UNL1       -0.1733
     18 H         136.5279  140.0527  162.2836 H       1  UNL1        0.1492
     19 S         138.0267  141.3716  161.8508 S.O2    1  UNL1        0.0606
     20 O         139.0564  140.9347  160.8514 O.2     1  UNL1       -0.1530
     21 O         136.9971  141.8086  162.8501 O.2     1  UNL1       -0.1530
     22 C         138.5946  142.7599  161.8289 C.ar    1  UNL1        0.1220
     23 C         138.2032  143.7470  162.8883 C.ar    1  UNL1        0.0199
     24 C         138.7711  145.1352  162.8664 C.ar    1  UNL1        0.0014
     25 C         139.7304  145.5361  161.7852 C.ar    1  UNL1        0.0001
     26 C         140.1218  144.5490  160.7258 C.ar    1  UNL1        0.0014
     27 C         139.5539  143.1608  160.7477 C.ar    1  UNL1        0.0199
@<TRIPOS>BOND
     1    13    14    1
     2    14    15    1
     3    14    12    1
     4    12     1    1
     5     1     2   ar
     6     2     3   ar
     7     3    16    1
     8    16    17    1
     9    17    19    1
    10    19    20    2
    11    19    21    2
    12    19    22    1
    13    22    23   ar
    14    23    24   ar
    15    24    25   ar
    16    25    26   ar
    17    26    27   ar
    18     3     4   ar
    19     4     5   ar
    20     5     6    1
    21     6     7   ar
    22     7     8   ar
    23     8     9   ar
    24     9    10   ar
    25    10    11   ar
    26     5     1   ar
    27    11     6   ar
    28    27    22   ar
    29    17    18    1
@<TRIPOS>MOLECULE
*****
 27 29 0 0 0
SMALL
GASTEIGER

@<TRIPOS>ATOM
      1 C         139.9924  142.1148  165.6656 C.ar    1  UNL1        0.0617
      2 C         139.2328  141.1392  164.8162 C.ar    1  UNL1        0.0326
      3 C         139.1654  139.8357  165.5552 C.ar    1  UNL1        0.0977
      4 N         139.8833  140.0055  166.8613 N.ar    1  UNL1       -0.1683
      5 N         140.3944  141.4141  166.9295 N.ar    1  UNL1       -0.2340
      6 C         141.1711  142.0162  168.0627 C.ar    1  UNL1        0.0824
      7 C         140.5098  142.9919  168.9904 C.ar    1  UNL1        0.0191
      8 C         141.2865  143.5940  170.1235 C.ar    1  UNL1        0.0015
      9 C         142.7246  143.2205  170.3290 C.ar    1  UNL1        0.0001
     10 C         143.3861  142.2448  169.4013 C.ar    1  UNL1        0.0015
     11 C         142.6093  141.6427  168.2682 C.ar    1  UNL1        0.0191
     12 C         140.2965  143.5407  165.3130 C.3     1  UNL1        0.0459
     13 C         138.3610  145.1429  165.9738 C.3     1  UNL1        0.0004
     14 C         139.1863  144.4688  164.9181 C.3     1  UNL1        0.0059
     15 C         138.9013  144.7228  163.4675 C.3     1  UNL1        0.0004
     16 C         138.4974  138.5822  165.0728 C.3     1  UNL1        0.1387
     17 N         139.3218  137.4596  164.5160 N.3     1  UNL1       -0.1733
     18 H         138.6944  136.8838  163.9546 H       1  UNL1        0.1492
     19 S         140.5166  137.7594  163.6600 S.O2    1  UNL1        0.0606
     20 O         139.6116  138.0606  162.5024 O.2     1  UNL1       -0.1530
     21 O         141.4215  137.4582  164.8177 O.2     1  UNL1       -0.1530
     22 C         141.7114  138.0592  162.8041 C.ar    1  UNL1        0.1220
     23 C         142.9641  138.5994  163.4276 C.ar    1  UNL1        0.0199
     24 C         144.1588  138.8992  162.5716 C.ar    1  UNL1        0.0014
     25 C         144.1008  138.6587  161.0921 C.ar    1  UNL1        0.0001
     26 C         142.8481  138.1185  160.4686 C.ar    1  UNL1        0.0014
     27 C         141.6534  137.8187  161.3246 C.ar    1  UNL1        0.0199
@<TRIPOS>BOND
     1    13    14    1
     2    14    15    1
     3    14    12    1
     4    12     1    1
     5     1     2   ar
     6     2     3   ar
     7     3    16    1
     8    16    17    1
     9    17    19    1
    10    19    20    2
    11    19    21    2
    12    19    22    1
    13    22    23   ar
    14    23    24   ar
    15    24    25   ar
    16    25    26   ar
    17    26    27   ar
    18     3     4   ar
    19     4     5   ar
    20     5     6    1
    21     6     7   ar
    22     7     8   ar
    23     8     9   ar
    24     9    10   ar
    25    10    11   ar
    26     5     1   ar
    27    11     6   ar
    28    27    22   ar
    29    17    18    1
@<TRIPOS>MOLECULE
*****
 27 29 0 0 0
SMALL
GASTEIGER

@<TRIPOS>ATOM
      1 C         138.6056  140.9603  164.3956 C.ar    1  UNL1        0.0617
      2 C         138.7047  140.1619  163.1295 C.ar    1  UNL1        0.0326
      3 C         139.6793  139.0453  163.3608 C.ar    1  UNL1        0.0977
      4 N         140.1826  139.1536  164.7697 N.ar    1  UNL1       -0.1683
      5 N         139.5190  140.3371  165.4093 N.ar    1  UNL1       -0.2340
      6 C         139.7315  140.8136  166.8155 C.ar    1  UNL1        0.0824
      7 C         139.2524  139.9835  167.9693 C.ar    1  UNL1        0.0191
      8 C         139.4649  140.4601  169.3756 C.ar    1  UNL1        0.0015
      9 C         140.1565  141.7669  169.6281 C.ar    1  UNL1        0.0001
     10 C         140.6357  142.5972  168.4744 C.ar    1  UNL1        0.0015
     11 C         140.4231  142.1205  167.0681 C.ar    1  UNL1        0.0191
     12 C         137.7444  142.1695  164.6104 C.3     1  UNL1        0.0459
     13 C         138.6672  144.5639  165.0162 C.3     1  UNL1        0.0004
     14 C         138.1770  143.5027  164.0763 C.3     1  UNL1        0.0059
     15 C         138.1194  143.7748  162.6023 C.3     1  UNL1        0.0004
     16 C         140.0803  138.0034  162.3589 C.3     1  UNL1        0.1387
     17 N         141.2677  138.2336  161.4718 N.3     1  UNL1       -0.1733
     18 H         140.9140  138.6410  160.6062 H       1  UNL1        0.1492
     19 S         142.3916  139.1119  161.9360 S.O2    1  UNL1        0.0606
     20 O         141.9188  140.2013  161.0198 O.2     1  UNL1       -0.1530
     21 O         142.8645  138.0224  162.8522 O.2     1  UNL1       -0.1530
     22 C         143.5156  139.9901  162.4003 C.ar    1  UNL1        0.1220
     23 C         144.2687  139.6461  163.6510 C.ar    1  UNL1        0.0199
     24 C         145.3927  140.5243  164.1152 C.ar    1  UNL1        0.0014
     25 C         145.7635  141.7465  163.3286 C.ar    1  UNL1        0.0001
     26 C         145.0104  142.0905  162.0779 C.ar    1  UNL1        0.0014
     27 C         143.8865  141.2123  161.6137 C.ar    1  UNL1        0.0199
@<TRIPOS>BOND
     1    13    14    1
     2    14    15    1
     3    14    12    1
     4    12     1    1
     5     1     2   ar
     6     2     3   ar
     7     3    16    1
     8    16    17    1
     9    17    19    1
    10    19    20    2
    11    19    21    2
    12    19    22    1
    13    22    23   ar
    14    23    24   ar
    15    24    25   ar
    16    25    26   ar
    17    26    27   ar
    18     3     4   ar
    19     4     5   ar
    20     5     6    1
    21     6     7   ar
    22     7     8   ar
    23     8     9   ar
    24     9    10   ar
    25    10    11   ar
    26     5     1   ar
    27    11     6   ar
    28    27    22   ar
    29    17    18    1
@<TRIPOS>MOLECULE
*****
 27 29 0 0 0
SMALL
GASTEIGER

@<TRIPOS>ATOM
      1 C         141.5244  142.8425  165.3724 C.ar    1  UNL1        0.0617
      2 C         141.1365  143.5268  164.0951 C.ar    1  UNL1        0.0326
      3 C         139.7165  143.9908  164.2306 C.ar    1  UNL1        0.0977
      4 N         139.2268  143.5933  165.5915 N.ar    1  UNL1       -0.1683
      5 N         140.3441  142.8837  166.2972 N.ar    1  UNL1       -0.2340
      6 C         140.2905  142.3150  167.6841 C.ar    1  UNL1        0.0824
      7 C         140.3682  143.2272  168.8724 C.ar    1  UNL1        0.0191
      8 C         140.3146  142.6586  170.2593 C.ar    1  UNL1        0.0015
      9 C         140.1833  141.1776  170.4581 C.ar    1  UNL1        0.0001
     10 C         140.1056  140.2653  169.2699 C.ar    1  UNL1        0.0015
     11 C         140.1592  140.8341  167.8829 C.ar    1  UNL1        0.0191
     12 C         142.8583  142.2255  165.6722 C.3     1  UNL1        0.0459
     13 C         144.6804  141.9854  163.8358 C.3     1  UNL1        0.0004
     14 C         144.0923  142.7393  164.9916 C.3     1  UNL1        0.0059
     15 C         144.7382  144.0071  165.4667 C.3     1  UNL1        0.0004
     16 C         138.9252  144.7236  163.1880 C.3     1  UNL1        0.1387
     17 N         137.9100  143.9893  162.3633 N.3     1  UNL1       -0.1733
     18 H         137.8488  144.4765  161.4693 H       1  UNL1        0.1492
     19 S         138.1068  142.5354  162.0515 S.O2    1  UNL1        0.0606
     20 O         139.1707  142.8928  161.0564 O.2     1  UNL1       -0.1530
     21 O         137.0429  142.1780  163.0466 O.2     1  UNL1       -0.1530
     22 C         138.3036  141.0813  161.7398 C.ar    1  UNL1        0.1220
     23 C         138.0642  140.0478  162.8002 C.ar    1  UNL1        0.0199
     24 C         138.2610  138.5939  162.4884 C.ar    1  UNL1        0.0014
     25 C         138.6972  138.1734  161.1162 C.ar    1  UNL1        0.0001
     26 C         138.9365  139.2069  160.0557 C.ar    1  UNL1        0.0014
     27 C         138.7397  140.6609  160.3675 C.ar    1  UNL1        0.0199
@<TRIPOS>BOND
     1    13    14    1
     2    14    15    1
     3    14    12    1
     4    12     1    1
     5     1     2   ar
     6     2     3   ar
     7     3    16    1
     8    16    17    1
     9    17    19    1
    10    19    20    2
    11    19    21    2
    12    19    22    1
    13    22    23   ar
    14    23    24   ar
    15    24    25   ar
    16    25    26   ar
    17    26    27   ar
    18     3     4   ar
    19     4     5   ar
    20     5     6    1
    21     6     7   ar
    22     7     8   ar
    23     8     9   ar
    24     9    10   ar
    25    10    11   ar
    26     5     1   ar
    27    11     6   ar
    28    27    22   ar
    29    17    18    1
