@<TRIPOS>MOLECULE
*****
 34 38 0 0 0
SMALL
GASTEIGER

@<TRIPOS>ATOM
      1 N         141.1420  137.1969  162.8711 N.pl3   1  UNL1       -0.2803
      2 H         141.1873  136.2135  162.8582 H       1  UNL1        0.1551
      3 C         141.8520  137.9943  161.8175 C.ar    1  UNL1        0.2208
      4 N         142.4484  137.3021  160.6278 N.ar    1  UNL1       -0.2111
      5 C         143.1584  138.0995  159.5742 C.ar    1  UNL1        0.1147
      6 C         143.2720  139.5890  159.7103 C.ar    1  UNL1        0.0946
      7 CL        143.9820  140.3863  158.6567 Cl      1  UNL1       -0.0790
      8 C         142.6756  140.2811  160.9000 C.ar    1  UNL1        0.0992
      9 N         141.9657  139.4837  161.9535 N.ar    1  UNL1       -0.2126
     10 C         142.7893  141.7706  161.0361 C.ar    1  UNL1        0.0572
     11 C         142.4745  142.7797  159.9719 C.ar    1  UNL1        0.1235
     12 N         142.7284  144.1453  160.5384 N.ar    1  UNL1       -0.1634
     13 N         143.2001  143.9801  161.9526 N.ar    1  UNL1       -0.2281
     14 C         143.6002  144.9764  163.0001 C.ar    1  UNL1        0.1004
     15 C         144.0380  144.5051  164.3551 C.ar    1  UNL1        0.0207
     16 C         144.0756  143.0375  164.6627 C.ar    1  UNL1        0.0031
     17 C         143.6755  142.0412  163.6153 C.ar    1  UNL1        0.0193
     18 C         143.2378  142.5124  162.2603 C.ar    1  UNL1        0.0858
     19 C         140.9286  138.8128  164.9897 C.ar    1  UNL1        0.0704
     20 C         140.3630  137.8977  163.9443 C.ar    1  UNL1        0.0850
     21 C         138.8814  137.8065  164.1607 C.ar    1  UNL1        0.1359
     22 N         138.5314  138.6652  165.3397 N.ar    1  UNL1       -0.1667
     23 N         139.7967  139.2872  165.8521 N.ar    1  UNL1       -0.2555
     24 C         139.9101  140.2197  167.0215 C.3     1  UNL1        0.1083
     25 C         140.2301  141.6679  166.7976 C.3     1  UNL1        0.0459
     26 C         140.3435  142.6005  167.9670 C.3     1  UNL1        0.0954
     27 N         140.1368  142.0847  169.3603 N.am    1  UNL1       -0.2794
     28 C         140.2502  143.0173  170.5298 C.2     1  UNL1        0.2261
     29 C         140.5702  144.4656  170.3058 C.3     1  UNL1        0.0948
     30 O         140.0436  142.5016  171.9231 O.2     1  UNL1       -0.2749
     31 C         139.8169  140.6365  169.5843 C.3     1  UNL1        0.0954
     32 C         139.7035  139.7040  168.4148 C.3     1  UNL1        0.0459
     33 C         143.1676  138.6482  166.2972 C.3     1  UNL1        0.0067
     34 C         142.3726  139.1877  165.1453 C.3     1  UNL1        0.0468
@<TRIPOS>BOND
     1    33    34    1
     2    34    19    1
     3    19    20   ar
     4    20     1    1
     5     1     3    1
     6     3     4   ar
     7     4     5   ar
     8     5     6   ar
     9     6     7    1
    10     6     8   ar
    11     8    10    1
    12    10    11   ar
    13    11    12   ar
    14    12    13   ar
    15    13    14   ar
    16    14    15   ar
    17    15    16   ar
    18    16    17   ar
    19    17    18   ar
    20     8     9   ar
    21    20    21   ar
    22    21    22   ar
    23    22    23   ar
    24    23    24    1
    25    24    25    1
    26    25    26    1
    27    26    27    1
    28    27    28   am
    29    28    29    1
    30    28    30    2
    31    27    31    1
    32    31    32    1
    33    23    19   ar
    34    32    24    1
    35     9     3   ar
    36    18    10   ar
    37    18    13   ar
    38     1     2    1
@<TRIPOS>MOLECULE
*****
 34 38 0 0 0
SMALL
GASTEIGER

@<TRIPOS>ATOM
      1 N         137.5478  140.0286  160.3558 N.pl3   1  UNL1       -0.2803
      2 H         136.6864  139.7714  159.9544 H       1  UNL1        0.1551
      3 C         138.4297  141.0254  159.6640 C.ar    1  UNL1        0.2208
      4 N         137.9479  141.7205  158.4252 N.ar    1  UNL1       -0.2111
      5 C         138.8297  142.7173  157.7334 C.ar    1  UNL1        0.1147
      6 C         140.1935  143.0191  158.2804 C.ar    1  UNL1        0.0946
      7 CL        141.0754  144.0159  157.5886 Cl      1  UNL1       -0.0790
      8 C         140.6754  142.3239  159.5193 C.ar    1  UNL1        0.0992
      9 N         139.7935  141.3271  160.2110 N.ar    1  UNL1       -0.2126
     10 C         142.0391  142.6256  160.0663 C.ar    1  UNL1        0.0572
     11 C         143.3409  142.1239  159.5153 C.ar    1  UNL1        0.1235
     12 N         144.4468  142.6703  160.3688 N.ar    1  UNL1       -0.1634
     13 N         143.8285  143.5096  161.4473 N.ar    1  UNL1       -0.2281
     14 C         144.4282  144.2955  162.5754 C.ar    1  UNL1        0.1004
     15 C         143.5398  145.0537  163.5166 C.ar    1  UNL1        0.0207
     16 C         142.0518  145.0261  163.3297 C.ar    1  UNL1        0.0031
     17 C         141.4521  144.2403  162.2015 C.ar    1  UNL1        0.0193
     18 C         142.3404  143.4820  161.2603 C.ar    1  UNL1        0.0858
     19 C         137.9682  140.1067  162.9945 C.ar    1  UNL1        0.0704
     20 C         137.9783  139.4235  161.6591 C.ar    1  UNL1        0.0850
     21 C         138.4946  138.0289  161.8558 C.ar    1  UNL1        0.1359
     22 N         138.8035  137.8503  163.3128 N.ar    1  UNL1       -0.1667
     23 N         138.4782  139.1345  164.0165 N.ar    1  UNL1       -0.2555
     24 C         138.6352  139.3997  165.4845 C.3     1  UNL1        0.1083
     25 C         139.6647  140.3799  165.9635 C.3     1  UNL1        0.0459
     26 C         139.8218  140.6452  167.4316 C.3     1  UNL1        0.0954
     27 N         138.9494  139.9303  168.4204 N.am    1  UNL1       -0.2794
     28 C         139.1065  140.1956  169.8884 C.2     1  UNL1        0.2261
     29 C         140.1359  141.1757  170.3675 C.3     1  UNL1        0.0948
     30 O         138.2340  139.4807  170.8773 O.2     1  UNL1       -0.2749
     31 C         137.9199  138.9502  167.9413 C.3     1  UNL1        0.0954
     32 C         137.7629  138.6849  166.4733 C.3     1  UNL1        0.0459
     33 C         138.5357  142.6232  163.3025 C.3     1  UNL1        0.0067
     34 C         137.5258  141.5149  163.2610 C.3     1  UNL1        0.0468
@<TRIPOS>BOND
     1    33    34    1
     2    34    19    1
     3    19    20   ar
     4    20     1    1
     5     1     3    1
     6     3     4   ar
     7     4     5   ar
     8     5     6   ar
     9     6     7    1
    10     6     8   ar
    11     8    10    1
    12    10    11   ar
    13    11    12   ar
    14    12    13   ar
    15    13    14   ar
    16    14    15   ar
    17    15    16   ar
    18    16    17   ar
    19    17    18   ar
    20     8     9   ar
    21    20    21   ar
    22    21    22   ar
    23    22    23   ar
    24    23    24    1
    25    24    25    1
    26    25    26    1
    27    26    27    1
    28    27    28   am
    29    28    29    1
    30    28    30    2
    31    27    31    1
    32    31    32    1
    33    23    19   ar
    34    32    24    1
    35     9     3   ar
    36    18    10   ar
    37    18    13   ar
    38     1     2    1
@<TRIPOS>MOLECULE
*****
 34 38 0 0 0
SMALL
GASTEIGER

@<TRIPOS>ATOM
      1 N         141.4136  136.9699  163.2178 N.pl3   1  UNL1       -0.2803
      2 H         141.6623  136.0374  163.4125 H       1  UNL1        0.1551
      3 C         141.8769  137.6202  161.9480 C.ar    1  UNL1        0.2208
      4 N         143.3056  138.0541  161.8056 N.ar    1  UNL1       -0.2111
      5 C         143.7689  138.7044  160.5357 C.ar    1  UNL1        0.1147
      6 C         142.8034  138.9208  159.4083 C.ar    1  UNL1        0.0946
      7 CL        143.2667  139.5711  158.1385 Cl      1  UNL1       -0.0790
      8 C         141.3745  138.4868  159.5508 C.ar    1  UNL1        0.0992
      9 N         140.9114  137.8365  160.8206 N.ar    1  UNL1       -0.2126
     10 C         140.4091  138.7031  158.4234 C.ar    1  UNL1        0.0572
     11 C         139.3139  139.7273  158.3848 C.ar    1  UNL1        0.1235
     12 N         138.5972  139.5904  157.0742 N.ar    1  UNL1       -0.1634
     13 N         139.2495  138.4816  156.3028 N.ar    1  UNL1       -0.2281
     14 C         138.9685  137.9004  154.9489 C.ar    1  UNL1        0.1004
     15 C         139.8072  136.7708  154.4288 C.ar    1  UNL1        0.0207
     16 C         140.9270  136.2225  155.2626 C.ar    1  UNL1        0.0031
     17 C         141.2081  136.8036  156.6166 C.ar    1  UNL1        0.0193
     18 C         140.3693  137.9332  157.1367 C.ar    1  UNL1        0.0858
     19 C         141.0757  138.7063  165.2218 C.ar    1  UNL1        0.0704
     20 C         140.5714  137.7402  164.1911 C.ar    1  UNL1        0.0850
     21 C         139.0768  137.6796  164.3045 C.ar    1  UNL1        0.1359
     22 N         138.6575  138.6083  165.4053 N.ar    1  UNL1       -0.1667
     23 N         139.8929  139.2428  165.9722 N.ar    1  UNL1       -0.2555
     24 C         139.9376  140.2390  167.0928 C.3     1  UNL1        0.1083
     25 C         140.3314  141.6600  166.8178 C.3     1  UNL1        0.0459
     26 C         140.3761  142.6562  167.9384 C.3     1  UNL1        0.0954
     27 N         140.0271  142.2312  169.3339 N.am    1  UNL1       -0.2794
     28 C         140.0718  143.2274  170.4545 C.2     1  UNL1        0.2261
     29 C         140.4655  144.6484  170.1795 C.3     1  UNL1        0.0948
     30 O         139.7227  142.8025  171.8501 O.2     1  UNL1       -0.2749
     31 C         139.6333  140.8102  169.6090 C.3     1  UNL1        0.0954
     32 C         139.5886  139.8141  168.4883 C.3     1  UNL1        0.0459
     33 C         143.2366  138.5219  166.6522 C.3     1  UNL1        0.0067
     34 C         142.5108  139.0717  165.4602 C.3     1  UNL1        0.0468
@<TRIPOS>BOND
     1    33    34    1
     2    34    19    1
     3    19    20   ar
     4    20     1    1
     5     1     3    1
     6     3     4   ar
     7     4     5   ar
     8     5     6   ar
     9     6     7    1
    10     6     8   ar
    11     8    10    1
    12    10    11   ar
    13    11    12   ar
    14    12    13   ar
    15    13    14   ar
    16    14    15   ar
    17    15    16   ar
    18    16    17   ar
    19    17    18   ar
    20     8     9   ar
    21    20    21   ar
    22    21    22   ar
    23    22    23   ar
    24    23    24    1
    25    24    25    1
    26    25    26    1
    27    26    27    1
    28    27    28   am
    29    28    29    1
    30    28    30    2
    31    27    31    1
    32    31    32    1
    33    23    19   ar
    34    32    24    1
    35     9     3   ar
    36    18    10   ar
    37    18    13   ar
    38     1     2    1
@<TRIPOS>MOLECULE
*****
 34 38 0 0 0
SMALL
GASTEIGER

@<TRIPOS>ATOM
      1 N         137.4245  139.8150  160.1900 N.pl3   1  UNL1       -0.2803
      2 H         136.4545  139.8835  160.0359 H       1  UNL1        0.1551
      3 C         138.3858  140.2353  159.1180 C.ar    1  UNL1        0.2208
      4 N         138.9880  139.2079  158.2059 N.ar    1  UNL1       -0.2111
      5 C         139.9493  139.6282  157.1339 C.ar    1  UNL1        0.1147
      6 C         140.3083  141.0758  156.9739 C.ar    1  UNL1        0.0946
      7 CL        141.2696  141.4961  155.9019 Cl      1  UNL1       -0.0790
      8 C         139.7060  142.1032  157.8860 C.ar    1  UNL1        0.0992
      9 N         138.7448  141.6829  158.9580 N.ar    1  UNL1       -0.2126
     10 C         140.0650  143.5508  157.7261 C.ar    1  UNL1        0.0572
     11 C         141.1269  144.2854  158.4895 C.ar    1  UNL1        0.1235
     12 N         141.1433  145.7065  158.0098 N.ar    1  UNL1       -0.1634
     13 N         140.0916  145.8502  156.9499 N.ar    1  UNL1       -0.2281
     14 C         139.6547  147.0221  156.1218 C.ar    1  UNL1        0.1004
     15 C         138.5514  146.8616  155.1184 C.ar    1  UNL1        0.0207
     16 C         137.8850  145.5293  154.9431 C.ar    1  UNL1        0.0031
     17 C         138.3219  144.3574  155.7711 C.ar    1  UNL1        0.0193
     18 C         139.4252  144.5179  156.7745 C.ar    1  UNL1        0.0858
     19 C         137.9195  140.0167  162.8091 C.ar    1  UNL1        0.0704
     20 C         137.9409  139.2903  161.4969 C.ar    1  UNL1        0.0850
     21 C         138.5695  137.9468  161.7209 C.ar    1  UNL1        0.1359
     22 N         138.9365  137.8430  163.1717 N.ar    1  UNL1       -0.1667
     23 N         138.5348  139.1223  163.8442 N.ar    1  UNL1       -0.2555
     24 C         138.7165  139.4496  165.2967 C.3     1  UNL1        0.1083
     25 C         139.6989  140.5049  165.7104 C.3     1  UNL1        0.0459
     26 C         139.8806  140.8323  167.1630 C.3     1  UNL1        0.0954
     27 N         139.0799  140.1043  168.2017 N.am    1  UNL1       -0.2794
     28 C         139.2616  140.4317  169.6543 C.2     1  UNL1        0.2261
     29 C         140.2440  141.4870  170.0681 C.3     1  UNL1        0.0948
     30 O         138.4609  139.7038  170.6930 O.2     1  UNL1       -0.2749
     31 C         138.0974  139.0490  167.7879 C.3     1  UNL1        0.0954
     32 C         137.9158  138.7217  166.3354 C.3     1  UNL1        0.0459
     33 C         138.0962  142.5887  162.4882 C.3     1  UNL1        0.0067
     34 C         137.3778  141.3954  163.0448 C.3     1  UNL1        0.0468
@<TRIPOS>BOND
     1    33    34    1
     2    34    19    1
     3    19    20   ar
     4    20     1    1
     5     1     3    1
     6     3     4   ar
     7     4     5   ar
     8     5     6   ar
     9     6     7    1
    10     6     8   ar
    11     8    10    1
    12    10    11   ar
    13    11    12   ar
    14    12    13   ar
    15    13    14   ar
    16    14    15   ar
    17    15    16   ar
    18    16    17   ar
    19    17    18   ar
    20     8     9   ar
    21    20    21   ar
    22    21    22   ar
    23    22    23   ar
    24    23    24    1
    25    24    25    1
    26    25    26    1
    27    26    27    1
    28    27    28   am
    29    28    29    1
    30    28    30    2
    31    27    31    1
    32    31    32    1
    33    23    19   ar
    34    32    24    1
    35     9     3   ar
    36    18    10   ar
    37    18    13   ar
    38     1     2    1
@<TRIPOS>MOLECULE
*****
 34 38 0 0 0
SMALL
GASTEIGER

@<TRIPOS>ATOM
      1 N         143.6563  137.6511  161.7074 N.pl3   1  UNL1       -0.2803
      2 H         144.3887  137.0230  161.9030 H       1  UNL1        0.1551
      3 C         143.4667  138.1714  160.3133 C.ar    1  UNL1        0.2208
      4 N         143.9985  139.5229  159.9385 N.ar    1  UNL1       -0.2111
      5 C         143.8089  140.0433  158.5445 C.ar    1  UNL1        0.1147
      6 C         143.0875  139.2121  157.5253 C.ar    1  UNL1        0.0946
      7 CL        142.8980  139.7324  156.1313 Cl      1  UNL1       -0.0790
      8 C         142.5557  137.8604  157.9002 C.ar    1  UNL1        0.0992
      9 N         142.7453  137.3402  159.2942 N.ar    1  UNL1       -0.2126
     10 C         141.8343  137.0292  156.8810 C.ar    1  UNL1        0.0572
     11 C         140.5133  137.3574  156.2508 C.ar    1  UNL1        0.1235
     12 N         140.1699  136.2549  155.2935 N.ar    1  UNL1       -0.1634
     13 N         141.2786  135.2454  155.3320 N.ar    1  UNL1       -0.2281
     14 C         141.4844  133.9522  154.6004 C.ar    1  UNL1        0.1004
     15 C         142.7190  133.1376  154.8500 C.ar    1  UNL1        0.0207
     16 C         143.7476  133.6161  155.8312 C.ar    1  UNL1        0.0031
     17 C         143.5418  134.9093  156.5628 C.ar    1  UNL1        0.0193
     18 C         142.3073  135.7239  156.3132 C.ar    1  UNL1        0.0858
     19 C         143.0786  139.0013  163.9409 C.ar    1  UNL1        0.0704
     20 C         142.7300  138.0877  162.8034 C.ar    1  UNL1        0.0850
     21 C         141.2922  137.6874  162.9543 C.ar    1  UNL1        0.1359
     22 N         140.7523  138.3535  164.1851 N.ar    1  UNL1       -0.1667
     23 N         141.8564  139.1656  164.7948 N.ar    1  UNL1       -0.2555
     24 C         141.7559  139.9961  166.0399 C.3     1  UNL1        0.1083
     25 C         140.9090  141.2341  166.0493 C.3     1  UNL1        0.0459
     26 C         140.8085  142.0646  167.2944 C.3     1  UNL1        0.0954
     27 N         141.5549  141.6571  168.5300 N.am    1  UNL1       -0.2794
     28 C         141.4544  142.4876  169.7751 C.2     1  UNL1        0.2261
     29 C         140.6075  143.7256  169.7845 C.3     1  UNL1        0.0948
     30 O         142.2008  142.0801  171.0107 O.2     1  UNL1       -0.2749
     31 C         142.4019  140.4191  168.5206 C.3     1  UNL1        0.0954
     32 C         142.5023  139.5886  167.2755 C.3     1  UNL1        0.0459
     33 C         144.8942  140.7390  163.2825 C.3     1  UNL1        0.0067
     34 C         144.4148  139.6386  164.1821 C.3     1  UNL1        0.0468
@<TRIPOS>BOND
     1    33    34    1
     2    34    19    1
     3    19    20   ar
     4    20     1    1
     5     1     3    1
     6     3     4   ar
     7     4     5   ar
     8     5     6   ar
     9     6     7    1
    10     6     8   ar
    11     8    10    1
    12    10    11   ar
    13    11    12   ar
    14    12    13   ar
    15    13    14   ar
    16    14    15   ar
    17    15    16   ar
    18    16    17   ar
    19    17    18   ar
    20     8     9   ar
    21    20    21   ar
    22    21    22   ar
    23    22    23   ar
    24    23    24    1
    25    24    25    1
    26    25    26    1
    27    26    27    1
    28    27    28   am
    29    28    29    1
    30    28    30    2
    31    27    31    1
    32    31    32    1
    33    23    19   ar
    34    32    24    1
    35     9     3   ar
    36    18    10   ar
    37    18    13   ar
    38     1     2    1
@<TRIPOS>MOLECULE
*****
 34 38 0 0 0
SMALL
GASTEIGER

@<TRIPOS>ATOM
      1 N         143.0511  137.8195  161.9068 N.pl3   1  UNL1       -0.2803
      2 H         143.6439  137.0442  161.7776 H       1  UNL1        0.1551
      3 C         142.9435  138.8676  160.8391 C.ar    1  UNL1        0.2208
      4 N         143.6715  138.6917  159.5395 N.ar    1  UNL1       -0.2111
      5 C         143.5639  139.7398  158.4718 C.ar    1  UNL1        0.1147
      6 C         142.7283  140.9637  158.7038 C.ar    1  UNL1        0.0946
      7 CL        142.6208  142.0118  157.6361 Cl      1  UNL1       -0.0790
      8 C         142.0003  141.1396  160.0035 C.ar    1  UNL1        0.0992
      9 N         142.1079  140.0915  161.0711 N.ar    1  UNL1       -0.2126
     10 C         141.1648  142.3635  160.2355 C.ar    1  UNL1        0.0572
     11 C         139.9752  142.7856  159.4250 C.ar    1  UNL1        0.1235
     12 N         139.4474  144.0632  160.0073 N.ar    1  UNL1       -0.1634
     13 N         140.3107  144.4307  161.1777 N.ar    1  UNL1       -0.2281
     14 C         140.2674  145.5862  162.1332 C.ar    1  UNL1        0.1004
     15 C         141.2855  145.6912  163.2296 C.ar    1  UNL1        0.0207
     16 C         142.3469  144.6407  163.3707 C.ar    1  UNL1        0.0031
     17 C         142.3902  143.4852  162.4152 C.ar    1  UNL1        0.0193
     18 C         141.3721  143.3803  161.3187 C.ar    1  UNL1        0.0858
     19 C         142.4969  138.9516  164.2641 C.ar    1  UNL1        0.0704
     20 C         142.2555  137.9526  163.1714 C.ar    1  UNL1        0.0850
     21 C         141.0786  137.1100  163.5654 C.ar    1  UNL1        0.1359
     22 N         140.5927  137.5882  164.9015 N.ar    1  UNL1       -0.1667
     23 N         141.4693  138.7264  165.3333 N.ar    1  UNL1       -0.2555
     24 C         141.3408  139.5030  166.6102 C.3     1  UNL1        0.1083
     25 C         140.1961  140.4541  166.7975 C.3     1  UNL1        0.0459
     26 C         140.0676  141.2308  168.0744 C.3     1  UNL1        0.0954
     27 N         141.0838  141.0562  169.1639 N.am    1  UNL1       -0.2794
     28 C         140.9553  141.8329  170.4408 C.2     1  UNL1        0.2261
     29 C         139.8106  142.7840  170.6281 C.3     1  UNL1        0.0948
     30 O         141.9714  141.6584  171.5302 O.2     1  UNL1       -0.2749
     31 C         142.2285  140.1051  168.9765 C.3     1  UNL1        0.0954
     32 C         142.3569  139.3285  167.6996 C.3     1  UNL1        0.0459
     33 C         145.0150  139.5799  164.3828 C.3     1  UNL1        0.0067
     34 C         143.5763  139.9928  164.2839 C.3     1  UNL1        0.0468
@<TRIPOS>BOND
     1    33    34    1
     2    34    19    1
     3    19    20   ar
     4    20     1    1
     5     1     3    1
     6     3     4   ar
     7     4     5   ar
     8     5     6   ar
     9     6     7    1
    10     6     8   ar
    11     8    10    1
    12    10    11   ar
    13    11    12   ar
    14    12    13   ar
    15    13    14   ar
    16    14    15   ar
    17    15    16   ar
    18    16    17   ar
    19    17    18   ar
    20     8     9   ar
    21    20    21   ar
    22    21    22   ar
    23    22    23   ar
    24    23    24    1
    25    24    25    1
    26    25    26    1
    27    26    27    1
    28    27    28   am
    29    28    29    1
    30    28    30    2
    31    27    31    1
    32    31    32    1
    33    23    19   ar
    34    32    24    1
    35     9     3   ar
    36    18    10   ar
    37    18    13   ar
    38     1     2    1
@<TRIPOS>MOLECULE
*****
 34 38 0 0 0
SMALL
GASTEIGER

@<TRIPOS>ATOM
      1 N         137.6427  139.1561  162.1978 N.pl3   1  UNL1       -0.2803
      2 H         136.6809  138.9471  162.1785 H       1  UNL1        0.1551
      3 C         138.3278  139.6503  160.9583 C.ar    1  UNL1        0.2208
      4 N         138.0273  141.0223  160.4316 N.ar    1  UNL1       -0.2111
      5 C         138.7124  141.5165  159.1921 C.ar    1  UNL1        0.1147
      6 C         139.6980  140.6387  158.4793 C.ar    1  UNL1        0.0946
      7 CL        140.3830  141.1329  157.2397 Cl      1  UNL1       -0.0790
      8 C         139.9985  139.2667  159.0059 C.ar    1  UNL1        0.0992
      9 N         139.3134  138.7725  160.2454 N.ar    1  UNL1       -0.2126
     10 C         140.9840  138.3889  158.2930 C.ar    1  UNL1        0.0572
     11 C         142.4028  138.1368  158.7097 C.ar    1  UNL1        0.1235
     12 N         143.0194  137.2013  157.7125 N.ar    1  UNL1       -0.1634
     13 N         141.9818  136.8751  156.6795 N.ar    1  UNL1       -0.2281
     14 C         142.0199  136.0045  155.4586 C.ar    1  UNL1        0.1004
     15 C         140.8000  135.8680  154.5966 C.ar    1  UNL1        0.0207
     16 C         139.5420  136.6020  154.9554 C.ar    1  UNL1        0.0031
     17 C         139.5039  137.4726  156.1763 C.ar    1  UNL1        0.0193
     18 C         140.7238  137.6091  157.0384 C.ar    1  UNL1        0.0858
     19 C         138.6685  140.0354  164.5043 C.ar    1  UNL1        0.0704
     20 C         138.4231  138.9803  163.4667 C.ar    1  UNL1        0.0850
     21 C         139.0951  137.7184  163.9208 C.ar    1  UNL1        0.1359
     22 N         139.7558  137.9937  165.2390 N.ar    1  UNL1       -0.1667
     23 N         139.4921  139.4257  165.5996 N.ar    1  UNL1       -0.2555
     24 C         139.9685  140.1251  166.8381 C.3     1  UNL1        0.1083
     25 C         141.1838  141.0026  166.7834 C.3     1  UNL1        0.0459
     26 C         141.6603  141.7021  168.0219 C.3     1  UNL1        0.0954
     27 N         140.9213  141.5240  169.3150 N.am    1  UNL1       -0.2794
     28 C         141.3977  142.2235  170.5536 C.2     1  UNL1        0.2261
     29 C         142.6130  143.1010  170.4989 C.3     1  UNL1        0.0948
     30 O         140.6588  142.0454  171.8468 O.2     1  UNL1       -0.2749
     31 C         139.7060  140.6465  169.3698 C.3     1  UNL1        0.0954
     32 C         139.2296  139.9471  168.1312 C.3     1  UNL1        0.0459
     33 C         139.0726  142.5393  163.9411 C.3     1  UNL1        0.0067
     34 C         138.1767  141.4516  164.4551 C.3     1  UNL1        0.0468
@<TRIPOS>BOND
     1    33    34    1
     2    34    19    1
     3    19    20   ar
     4    20     1    1
     5     1     3    1
     6     3     4   ar
     7     4     5   ar
     8     5     6   ar
     9     6     7    1
    10     6     8   ar
    11     8    10    1
    12    10    11   ar
    13    11    12   ar
    14    12    13   ar
    15    13    14   ar
    16    14    15   ar
    17    15    16   ar
    18    16    17   ar
    19    17    18   ar
    20     8     9   ar
    21    20    21   ar
    22    21    22   ar
    23    22    23   ar
    24    23    24    1
    25    24    25    1
    26    25    26    1
    27    26    27    1
    28    27    28   am
    29    28    29    1
    30    28    30    2
    31    27    31    1
    32    31    32    1
    33    23    19   ar
    34    32    24    1
    35     9     3   ar
    36    18    10   ar
    37    18    13   ar
    38     1     2    1
@<TRIPOS>MOLECULE
*****
 34 38 0 0 0
SMALL
GASTEIGER

@<TRIPOS>ATOM
      1 N         137.6604  139.0081  162.1935 N.pl3   1  UNL1       -0.2803
      2 H         136.7338  138.6765  162.1698 H       1  UNL1        0.1551
      3 C         138.2568  139.6548  160.9785 C.ar    1  UNL1        0.2208
      4 N         137.3963  139.9451  159.7847 N.ar    1  UNL1       -0.2111
      5 C         137.9927  140.5918  158.5698 C.ar    1  UNL1        0.1147
      6 C         139.4496  140.9482  158.5486 C.ar    1  UNL1        0.0946
      7 CL        140.0460  141.5949  157.3337 Cl      1  UNL1       -0.0790
      8 C         140.3102  140.6579  159.7425 C.ar    1  UNL1        0.0992
      9 N         139.7137  140.0112  160.9574 N.ar    1  UNL1       -0.2126
     10 C         141.7671  141.0143  159.7214 C.ar    1  UNL1        0.0572
     11 C         142.7786  140.5311  158.7247 C.ar    1  UNL1        0.1235
     12 N         144.1048  141.1346  159.0806 N.ar    1  UNL1       -0.1634
     13 N         143.9131  141.9908  160.2973 N.ar    1  UNL1       -0.2281
     14 C         144.8674  142.8285  161.0956 C.ar    1  UNL1        0.1004
     15 C         144.3768  143.5918  162.2901 C.ar    1  UNL1        0.0207
     16 C         142.9320  143.5174  162.6861 C.ar    1  UNL1        0.0031
     17 C         141.9777  142.6797  161.8877 C.ar    1  UNL1        0.0193
     18 C         142.4682  141.9164  160.6933 C.ar    1  UNL1        0.0858
     19 C         138.6829  139.9255  164.4866 C.ar    1  UNL1        0.0704
     20 C         138.4759  138.8666  163.4444 C.ar    1  UNL1        0.0850
     21 C         139.2275  137.6412  163.8730 C.ar    1  UNL1        0.1359
     22 N         139.8991  137.9429  165.1800 N.ar    1  UNL1       -0.1667
     23 N         139.5625  139.3547  165.5591 N.ar    1  UNL1       -0.2555
     24 C         140.0243  140.0699  166.7941 C.3     1  UNL1        0.1083
     25 C         141.2574  140.9228  166.7498 C.3     1  UNL1        0.0459
     26 C         141.7193  141.6381  167.9848 C.3     1  UNL1        0.0954
     27 N         140.9480  141.5004  169.2639 N.am    1  UNL1       -0.2794
     28 C         141.4100  142.2157  170.4989 C.2     1  UNL1        0.2261
     29 C         142.6431  143.0686  170.4547 C.3     1  UNL1        0.0948
     30 O         140.6387  142.0781  171.7781 O.2     1  UNL1       -0.2749
     31 C         139.7149  140.6475  169.3082 C.3     1  UNL1        0.0954
     32 C         139.2531  139.9323  168.0732 C.3     1  UNL1        0.0459
     33 C         139.0023  142.4860  164.1840 C.3     1  UNL1        0.0067
     34 C         138.1108  141.3118  164.4606 C.3     1  UNL1        0.0468
@<TRIPOS>BOND
     1    33    34    1
     2    34    19    1
     3    19    20   ar
     4    20     1    1
     5     1     3    1
     6     3     4   ar
     7     4     5   ar
     8     5     6   ar
     9     6     7    1
    10     6     8   ar
    11     8    10    1
    12    10    11   ar
    13    11    12   ar
    14    12    13   ar
    15    13    14   ar
    16    14    15   ar
    17    15    16   ar
    18    16    17   ar
    19    17    18   ar
    20     8     9   ar
    21    20    21   ar
    22    21    22   ar
    23    22    23   ar
    24    23    24    1
    25    24    25    1
    26    25    26    1
    27    26    27    1
    28    27    28   am
    29    28    29    1
    30    28    30    2
    31    27    31    1
    32    31    32    1
    33    23    19   ar
    34    32    24    1
    35     9     3   ar
    36    18    10   ar
    37    18    13   ar
    38     1     2    1
@<TRIPOS>MOLECULE
*****
 34 38 0 0 0
SMALL
GASTEIGER

@<TRIPOS>ATOM
      1 N         140.5609  145.7809  161.6220 N.pl3   1  UNL1       -0.2803
      2 H         140.7551  146.7423  161.7070 H       1  UNL1        0.1551
      3 C         140.6491  145.1136  160.2815 C.ar    1  UNL1        0.2208
      4 N         141.7262  145.5101  159.3158 N.ar    1  UNL1       -0.2111
      5 C         141.8144  144.8428  157.9753 C.ar    1  UNL1        0.1147
      6 C         140.8256  143.7790  157.6006 C.ar    1  UNL1        0.0946
      7 CL        140.9138  143.1117  156.2601 Cl      1  UNL1       -0.0790
      8 C         139.7484  143.3825  158.5663 C.ar    1  UNL1        0.0992
      9 N         139.6602  144.0498  159.9067 N.ar    1  UNL1       -0.2126
     10 C         138.7595  142.3187  158.1915 C.ar    1  UNL1        0.0572
     11 C         138.6002  140.9870  158.8632 C.ar    1  UNL1        0.1235
     12 N         137.4986  140.2451  158.1660 N.ar    1  UNL1       -0.1634
     13 N         136.9771  141.1183  157.0635 N.ar    1  UNL1       -0.2281
     14 C         135.8933  140.9120  156.0473 C.ar    1  UNL1        0.1004
     15 C         135.5888  141.9873  155.0468 C.ar    1  UNL1        0.0207
     16 C         136.3682  143.2689  155.0625 C.ar    1  UNL1        0.0031
     17 C         137.4519  143.4752  156.0788 C.ar    1  UNL1        0.0193
     18 C         137.7564  142.3999  157.0793 C.ar    1  UNL1        0.0858
     19 C         141.1020  144.1520  163.6712 C.ar    1  UNL1        0.0704
     20 C         140.1767  144.9835  162.8330 C.ar    1  UNL1        0.0850
     21 C         138.7996  144.8775  163.4184 C.ar    1  UNL1        0.1359
     22 N         138.8739  143.9805  164.6184 N.ar    1  UNL1       -0.1667
     23 N         140.2969  143.5321  164.7746 N.ar    1  UNL1       -0.2555
     24 C         140.8224  142.6235  165.8461 C.3     1  UNL1        0.1083
     25 C         140.5655  142.9394  167.2898 C.3     1  UNL1        0.0459
     26 C         141.0910  142.0307  168.3614 C.3     1  UNL1        0.0954
     27 N         141.8733  140.8061  167.9892 N.am    1  UNL1       -0.2794
     28 C         142.3988  139.8975  169.0608 C.2     1  UNL1        0.2261
     29 C         142.1420  140.2133  170.5045 C.3     1  UNL1        0.0948
     30 O         143.1812  138.6729  168.6886 O.2     1  UNL1       -0.2749
     31 C         142.1302  140.4903  166.5455 C.3     1  UNL1        0.0954
     32 C         141.6046  141.3990  165.4740 C.3     1  UNL1        0.0459
     33 C         143.5212  145.0964  163.7425 C.3     1  UNL1        0.0067
     34 C         142.5739  143.9720  163.4456 C.3     1  UNL1        0.0468
@<TRIPOS>BOND
     1    33    34    1
     2    34    19    1
     3    19    20   ar
     4    20     1    1
     5     1     3    1
     6     3     4   ar
     7     4     5   ar
     8     5     6   ar
     9     6     7    1
    10     6     8   ar
    11     8    10    1
    12    10    11   ar
    13    11    12   ar
    14    12    13   ar
    15    13    14   ar
    16    14    15   ar
    17    15    16   ar
    18    16    17   ar
    19    17    18   ar
    20     8     9   ar
    21    20    21   ar
    22    21    22   ar
    23    22    23   ar
    24    23    24    1
    25    24    25    1
    26    25    26    1
    27    26    27    1
    28    27    28   am
    29    28    29    1
    30    28    30    2
    31    27    31    1
    32    31    32    1
    33    23    19   ar
    34    32    24    1
    35     9     3   ar
    36    18    10   ar
    37    18    13   ar
    38     1     2    1
