@<TRIPOS>MOLECULE
*****
 31 35 0 0 0
SMALL
GASTEIGER

@<TRIPOS>ATOM
      1 C         143.5543  139.6274  161.9009 C.3     1  UNL1        0.0181
      2 C         143.2558  138.3610  161.1544 C.3     1  UNL1        0.0036
      3 C         142.9210  137.2867  160.1626 C.3     1  UNL1        0.0227
      4 C         142.6850  137.9403  158.8332 C.3     1  UNL1        0.0870
      5 C         142.8739  139.4185  159.0034 C.3     1  UNL1        0.0227
      6 C         143.2267  139.6786  160.4380 C.3     1  UNL1        0.0036
      7 N         142.3235  137.2387  157.5576 N.ar    1  UNL1       -0.3109
      8 C         141.4291  137.7748  156.4794 C.ar    1  UNL1        0.1785
      9 N         141.3458  136.7452  155.3918 N.ar    1  UNL1       -0.2239
     10 C         142.1888  135.5728  155.7977 C.ar    1  UNL1        0.1011
     11 C         142.4843  134.2669  155.1214 C.ar    1  UNL1        0.0526
     12 C         143.3840  133.2660  155.7838 C.ar    1  UNL1        0.1690
     13 F         143.6794  131.9601  155.1075 F       1  UNL1       -0.2017
     14 C         143.9883  133.5709  157.1224 C.ar    1  UNL1        0.1689
     15 F         144.8880  132.5700  157.7847 F       1  UNL1       -0.2017
     16 C         143.6928  134.8769  157.7986 C.ar    1  UNL1        0.0507
     17 C         142.7931  135.8778  157.1363 C.ar    1  UNL1        0.0813
     18 C         143.9158  140.3289  163.1765 C.3     1  UNL1        0.0718
     19 N         142.8921  140.4869  164.2615 N.am    1  UNL1       -0.3025
     20 C         142.9692  139.6370  165.4950 C.2     1  UNL1        0.2458
     21 O         144.0700  138.6289  165.6435 O.2     1  UNL1       -0.2701
     22 H         142.1696  141.1486  164.1641 H       1  UNL1        0.1497
     23 C         141.9456  139.7950  166.5800 C.ar    1  UNL1        0.0534
     24 C         140.5135  140.0665  166.2263 C.ar    1  UNL1        0.0054
     25 C         139.4898  140.2245  167.3113 C.ar    1  UNL1        0.0115
     26 C         139.8985  140.1110  168.7501 C.ar    1  UNL1        0.0577
     27 CL        138.8749  140.2691  169.8352 Cl      1  UNL1       -0.0822
     28 C         141.3307  139.8396  169.1039 C.ar    1  UNL1        0.0115
     29 C         142.3542  139.6815  168.0188 C.ar    1  UNL1        0.0054
     30 C         145.5086  142.1421  164.1382 C.3     1  UNL1        0.0017
     31 C         145.3008  140.8723  163.3672 C.3     1  UNL1        0.0196
@<TRIPOS>BOND
     1    30    31    1
     2    31    18    1
     3    18    19    1
     4    19    20   am
     5    20    21    2
     6    20    23    1
     7    23    24   ar
     8    24    25   ar
     9    25    26   ar
    10    26    27    1
    11    26    28   ar
    12    28    29   ar
    13     1    18    1
    14     1     2    1
    15     2     3    1
    16     3     4    1
    17     4     7    1
    18     7     8   ar
    19     8     9   ar
    20     9    10   ar
    21    10    11   ar
    22    11    12   ar
    23    12    13    1
    24    12    14   ar
    25    14    15    1
    26    14    16   ar
    27    16    17   ar
    28     4     5    1
    29     6     5    1
    30    29    23   ar
    31     6     1    1
    32     6     2    1
    33    17     7   ar
    34    17    10   ar
    35    19    22    1
@<TRIPOS>MOLECULE
*****
 31 35 0 0 0
SMALL
GASTEIGER

@<TRIPOS>ATOM
      1 C         140.4244  138.1327  157.6997 C.3     1  UNL1        0.0181
      2 C         141.0860  138.7465  158.8980 C.3     1  UNL1        0.0036
      3 C         141.4535  139.4201  160.1868 C.3     1  UNL1        0.0227
      4 C         140.1848  139.8352  160.8710 C.3     1  UNL1        0.0870
      5 C         139.0332  139.4181  160.0050 C.3     1  UNL1        0.0227
      6 C         139.5902  138.7452  158.7855 C.3     1  UNL1        0.0036
      7 N         140.0852  140.5431  162.1897 N.ar    1  UNL1       -0.3109
      8 C         140.4318  141.9796  162.4476 C.ar    1  UNL1        0.1785
      9 N         140.1823  142.2630  163.8993 N.ar    1  UNL1       -0.2239
     10 C         139.6816  141.0018  164.5386 C.ar    1  UNL1        0.1011
     11 C         139.2725  140.6840  165.9462 C.ar    1  UNL1        0.0526
     12 C         138.8034  139.3031  166.2974 C.ar    1  UNL1        0.1690
     13 F         138.3944  138.9853  167.7050 F       1  UNL1       -0.2017
     14 C         138.7434  138.2401  165.2407 C.ar    1  UNL1        0.1689
     15 F         138.2744  136.8593  165.5918 F       1  UNL1       -0.2017
     16 C         139.1525  138.5580  163.8330 C.ar    1  UNL1        0.0507
     17 C         139.6216  139.9388  163.4819 C.ar    1  UNL1        0.0813
     18 C         140.5241  137.4249  156.3811 C.3     1  UNL1        0.0718
     19 N         141.1079  136.0447  156.3130 N.am    1  UNL1       -0.3025
     20 C         142.5917  135.8520  156.4175 C.2     1  UNL1        0.2458
     21 O         143.4919  137.0394  156.5902 O.2     1  UNL1       -0.2701
     22 H         140.5171  135.2654  156.1997 H       1  UNL1        0.1497
     23 C         143.1755  134.4719  156.3495 C.ar    1  UNL1        0.0534
     24 C         143.0028  133.6448  155.1102 C.ar    1  UNL1        0.0054
     25 C         143.5866  132.2647  155.0421 C.ar    1  UNL1        0.0115
     26 C         144.3431  131.7118  156.2135 C.ar    1  UNL1        0.0577
     27 CL        144.9268  130.3318  156.1455 Cl      1  UNL1       -0.0822
     28 C         144.5157  132.5390  157.4528 C.ar    1  UNL1        0.0115
     29 C         143.9319  133.9190  157.5208 C.ar    1  UNL1        0.0054
     30 C         138.6518  137.8341  154.6270 C.3     1  UNL1        0.0017
     31 C         140.0401  138.0969  155.1304 C.3     1  UNL1        0.0196
@<TRIPOS>BOND
     1    30    31    1
     2    31    18    1
     3    18    19    1
     4    19    20   am
     5    20    21    2
     6    20    23    1
     7    23    24   ar
     8    24    25   ar
     9    25    26   ar
    10    26    27    1
    11    26    28   ar
    12    28    29   ar
    13     1    18    1
    14     1     2    1
    15     2     3    1
    16     3     4    1
    17     4     7    1
    18     7     8   ar
    19     8     9   ar
    20     9    10   ar
    21    10    11   ar
    22    11    12   ar
    23    12    13    1
    24    12    14   ar
    25    14    15    1
    26    14    16   ar
    27    16    17   ar
    28     4     5    1
    29     6     5    1
    30    29    23   ar
    31     6     1    1
    32     6     2    1
    33    17     7   ar
    34    17    10   ar
    35    19    22    1
@<TRIPOS>MOLECULE
*****
 31 35 0 0 0
SMALL
GASTEIGER

@<TRIPOS>ATOM
      1 C         140.4667  145.1537  157.9469 C.3     1  UNL1        0.0181
      2 C         140.3616  145.4525  159.4132 C.3     1  UNL1        0.0036
      3 C         140.1489  145.4572  160.8980 C.3     1  UNL1        0.0227
      4 C         139.6123  144.1135  161.2936 C.3     1  UNL1        0.0870
      5 C         139.4933  143.2783  160.0534 C.3     1  UNL1        0.0227
      6 C         139.9564  144.1059  158.8911 C.3     1  UNL1        0.0036
      7 N         139.2570  143.6810  162.6853 N.ar    1  UNL1       -0.3109
      8 C         137.8692  143.5244  163.2326 C.ar    1  UNL1        0.1785
      9 N         137.9817  143.0758  164.6595 N.ar    1  UNL1       -0.2239
     10 C         139.4389  142.9550  164.9941 C.ar    1  UNL1        0.1011
     11 C         140.1499  142.5528  166.2521 C.ar    1  UNL1        0.0526
     12 C         141.6492  142.5247  166.2899 C.ar    1  UNL1        0.1690
     13 F         142.3603  142.1225  167.5480 F       1  UNL1       -0.2017
     14 C         142.4374  142.8988  165.0698 C.ar    1  UNL1        0.1689
     15 F         143.9367  142.8706  165.1076 F       1  UNL1       -0.2017
     16 C         141.7263  143.3010  163.8117 C.ar    1  UNL1        0.0507
     17 C         140.2271  143.3291  163.7739 C.ar    1  UNL1        0.0813
     18 C         140.8220  145.5864  156.5553 C.3     1  UNL1        0.0718
     19 N         140.6503  147.0201  156.1488 N.am    1  UNL1       -0.3025
     20 C         139.4039  147.4533  155.4358 C.2     1  UNL1        0.2458
     21 O         138.3290  146.4530  155.1292 O.2     1  UNL1       -0.2701
     22 H         141.3558  147.6766  156.3500 H       1  UNL1        0.1497
     23 C         139.2322  148.8870  155.0292 C.ar    1  UNL1        0.0534
     24 C         138.5667  149.8561  155.9607 C.ar    1  UNL1        0.0054
     25 C         138.3950  151.2898  155.5542 C.ar    1  UNL1        0.0115
     26 C         138.8889  151.7542  154.2161 C.ar    1  UNL1        0.0577
     27 CL        138.7172  153.1878  153.8095 Cl      1  UNL1       -0.0822
     28 C         139.5544  150.7849  153.2846 C.ar    1  UNL1        0.0115
     29 C         139.7260  149.3513  153.6912 C.ar    1  UNL1        0.0054
     30 C         142.0976  145.0504  154.3563 C.3     1  UNL1        0.0017
     31 C         141.3491  144.5855  155.5702 C.3     1  UNL1        0.0196
@<TRIPOS>BOND
     1    30    31    1
     2    31    18    1
     3    18    19    1
     4    19    20   am
     5    20    21    2
     6    20    23    1
     7    23    24   ar
     8    24    25   ar
     9    25    26   ar
    10    26    27    1
    11    26    28   ar
    12    28    29   ar
    13     1    18    1
    14     1     2    1
    15     2     3    1
    16     3     4    1
    17     4     7    1
    18     7     8   ar
    19     8     9   ar
    20     9    10   ar
    21    10    11   ar
    22    11    12   ar
    23    12    13    1
    24    12    14   ar
    25    14    15    1
    26    14    16   ar
    27    16    17   ar
    28     4     5    1
    29     6     5    1
    30    29    23   ar
    31     6     1    1
    32     6     2    1
    33    17     7   ar
    34    17    10   ar
    35    19    22    1
@<TRIPOS>MOLECULE
*****
 31 35 0 0 0
SMALL
GASTEIGER

@<TRIPOS>ATOM
      1 C         140.4089  137.8749  156.9642 C.3     1  UNL1        0.0181
      2 C         140.5115  138.2135  158.4219 C.3     1  UNL1        0.0036
      3 C         140.3849  138.7560  159.8147 C.3     1  UNL1        0.0227
      4 C         139.3095  139.8018  159.8087 C.3     1  UNL1        0.0870
      5 C         138.7715  139.9056  158.4124 C.3     1  UNL1        0.0227
      6 C         139.5144  138.9240  157.5552 C.3     1  UNL1        0.0036
      7 N         138.8524  140.6030  160.9916 N.ar    1  UNL1       -0.3109
      8 C         138.4504  142.0480  160.9754 C.ar    1  UNL1        0.1785
      9 N         138.0666  142.4379  162.3721 N.ar    1  UNL1       -0.2239
     10 C         138.2314  141.2339  163.2514 C.ar    1  UNL1        0.1011
     11 C         138.0020  141.0237  164.7188 C.ar    1  UNL1        0.0526
     12 C         138.2583  139.6794  165.3329 C.ar    1  UNL1        0.1690
     13 F         138.0289  139.4691  166.8003 F       1  UNL1       -0.2017
     14 C         138.7440  138.5453  164.4797 C.ar    1  UNL1        0.1689
     15 F         139.0003  137.2010  165.0938 F       1  UNL1       -0.2017
     16 C         138.9734  138.7556  163.0123 C.ar    1  UNL1        0.0507
     17 C         138.7171  140.0998  162.3982 C.ar    1  UNL1        0.0813
     18 C         140.8660  137.0736  155.7815 C.3     1  UNL1        0.0718
     19 N         141.2539  135.6349  155.9549 N.am    1  UNL1       -0.3025
     20 C         142.6191  135.2826  156.4665 C.2     1  UNL1        0.2458
     21 O         143.5967  136.3689  156.8047 O.2     1  UNL1       -0.2701
     22 H         140.6123  134.9220  155.7329 H       1  UNL1        0.1497
     23 C         143.0070  133.8440  156.6399 C.ar    1  UNL1        0.0534
     24 C         144.2133  133.4856  157.4560 C.ar    1  UNL1        0.0054
     25 C         144.6011  132.0469  157.6294 C.ar    1  UNL1        0.0115
     26 C         143.7825  130.9668  156.9867 C.ar    1  UNL1        0.0577
     27 CL        144.1703  129.5282  157.1600 Cl      1  UNL1       -0.0822
     28 C         142.5761  131.3253  156.1705 C.ar    1  UNL1        0.0115
     29 C         142.1883  132.7639  155.9971 C.ar    1  UNL1        0.0054
     30 C         142.2610  137.8841  153.7451 C.3     1  UNL1        0.0017
     31 C         140.9354  137.7108  154.4253 C.3     1  UNL1        0.0196
@<TRIPOS>BOND
     1    30    31    1
     2    31    18    1
     3    18    19    1
     4    19    20   am
     5    20    21    2
     6    20    23    1
     7    23    24   ar
     8    24    25   ar
     9    25    26   ar
    10    26    27    1
    11    26    28   ar
    12    28    29   ar
    13     1    18    1
    14     1     2    1
    15     2     3    1
    16     3     4    1
    17     4     7    1
    18     7     8   ar
    19     8     9   ar
    20     9    10   ar
    21    10    11   ar
    22    11    12   ar
    23    12    13    1
    24    12    14   ar
    25    14    15    1
    26    14    16   ar
    27    16    17   ar
    28     4     5    1
    29     6     5    1
    30    29    23   ar
    31     6     1    1
    32     6     2    1
    33    17     7   ar
    34    17    10   ar
    35    19    22    1
@<TRIPOS>MOLECULE
*****
 31 35 0 0 0
SMALL
GASTEIGER

@<TRIPOS>ATOM
      1 C         140.9957  139.2966  158.7308 C.3     1  UNL1        0.0181
      2 C         141.9309  138.2635  158.1754 C.3     1  UNL1        0.0036
      3 C         142.6177  137.1458  157.4481 C.3     1  UNL1        0.0227
      4 C         141.6258  136.5248  156.5098 C.3     1  UNL1        0.0870
      5 C         140.3259  137.2587  156.6571 C.3     1  UNL1        0.0227
      6 C         140.5144  138.3333  157.6866 C.3     1  UNL1        0.0036
      7 N         141.8879  135.3722  155.5862 N.ar    1  UNL1       -0.3109
      8 C         141.3025  135.1885  154.2174 C.ar    1  UNL1        0.1785
      9 N         141.8342  133.9037  153.6546 N.ar    1  UNL1       -0.2239
     10 C         142.7482  133.2935  154.6755 C.ar    1  UNL1        0.1011
     11 C         143.5545  132.0287  154.6723 C.ar    1  UNL1        0.0526
     12 C         144.3941  131.6714  155.8629 C.ar    1  UNL1        0.1690
     13 F         145.2004  130.4066  155.8597 F       1  UNL1       -0.2017
     14 C         144.4273  132.5790  157.0567 C.ar    1  UNL1        0.1689
     15 F         145.2668  132.2218  158.2473 F       1  UNL1       -0.2017
     16 C         143.6209  133.8439  157.0599 C.ar    1  UNL1        0.0507
     17 C         142.7814  134.2011  155.8693 C.ar    1  UNL1        0.0813
     18 C         140.7338  140.4491  159.6544 C.3     1  UNL1        0.0718
     19 N         140.4550  140.1979  161.1067 N.am    1  UNL1       -0.3025
     20 C         139.0996  139.7226  161.5390 C.2     1  UNL1        0.2458
     21 O         138.0230  139.4983  160.5190 O.2     1  UNL1       -0.2701
     22 H         141.1616  140.3452  161.7763 H       1  UNL1        0.1497
     23 C         138.8208  139.4714  162.9914 C.ar    1  UNL1        0.0534
     24 C         139.0353  138.1047  163.5708 C.ar    1  UNL1        0.0054
     25 C         138.7565  137.8536  165.0232 C.ar    1  UNL1        0.0115
     26 C         138.2632  138.9693  165.8960 C.ar    1  UNL1        0.0577
     27 CL        137.9843  138.7183  167.3483 Cl      1  UNL1       -0.0822
     28 C         138.0487  140.3361  165.3164 C.ar    1  UNL1        0.0115
     29 C         138.3275  140.5872  163.8641 C.ar    1  UNL1        0.0054
     30 C         139.5050  142.6870  159.1732 C.3     1  UNL1        0.0017
     31 C         140.7506  141.8527  159.1258 C.3     1  UNL1        0.0196
@<TRIPOS>BOND
     1    30    31    1
     2    31    18    1
     3    18    19    1
     4    19    20   am
     5    20    21    2
     6    20    23    1
     7    23    24   ar
     8    24    25   ar
     9    25    26   ar
    10    26    27    1
    11    26    28   ar
    12    28    29   ar
    13     1    18    1
    14     1     2    1
    15     2     3    1
    16     3     4    1
    17     4     7    1
    18     7     8   ar
    19     8     9   ar
    20     9    10   ar
    21    10    11   ar
    22    11    12   ar
    23    12    13    1
    24    12    14   ar
    25    14    15    1
    26    14    16   ar
    27    16    17   ar
    28     4     5    1
    29     6     5    1
    30    29    23   ar
    31     6     1    1
    32     6     2    1
    33    17     7   ar
    34    17    10   ar
    35    19    22    1
@<TRIPOS>MOLECULE
*****
 31 35 0 0 0
SMALL
GASTEIGER

@<TRIPOS>ATOM
      1 C         137.0694  141.0325  156.3269 C.3     1  UNL1        0.0181
      2 C         137.6986  141.1465  157.6839 C.3     1  UNL1        0.0036
      3 C         138.4349  141.5342  158.9319 C.3     1  UNL1        0.0227
      4 C         139.0790  142.8679  158.6945 C.3     1  UNL1        0.0870
      5 C         138.7409  143.3044  157.2999 C.3     1  UNL1        0.0227
      6 C         137.8876  142.2405  156.6752 C.3     1  UNL1        0.0036
      7 N         139.9147  143.6311  159.6790 N.ar    1  UNL1       -0.3109
      8 C         141.2344  144.2851  159.3952 C.ar    1  UNL1        0.1785
      9 N         141.7126  144.9325  160.6610 N.ar    1  UNL1       -0.2239
     10 C         140.6884  144.6785  161.7271 C.ar    1  UNL1        0.1011
     11 C         140.6242  145.0757  163.1721 C.ar    1  UNL1        0.0526
     12 C         139.4486  144.6686  164.0103 C.ar    1  UNL1        0.1690
     13 F         139.3843  145.0658  165.4553 F       1  UNL1       -0.2017
     14 C         138.3374  143.8643  163.4034 C.ar    1  UNL1        0.1689
     15 F         137.1619  143.4572  164.2415 F       1  UNL1       -0.2017
     16 C         138.4018  143.4671  161.9583 C.ar    1  UNL1        0.0507
     17 C         139.5772  143.8742  161.1202 C.ar    1  UNL1        0.0813
     18 C         136.2338  140.2693  155.3425 C.3     1  UNL1        0.0718
     19 N         134.7690  140.5657  155.2133 N.am    1  UNL1       -0.3025
     20 C         133.8235  140.1658  156.3068 C.2     1  UNL1        0.2458
     21 O         134.3427  139.4694  157.5297 O.2     1  UNL1       -0.2701
     22 H         134.4282  141.0228  154.4106 H       1  UNL1        0.1497
     23 C         132.3587  140.4623  156.1776 C.ar    1  UNL1        0.0534
     24 C         131.3570  139.6341  156.9262 C.ar    1  UNL1        0.0054
     25 C         129.8922  139.9306  156.7970 C.ar    1  UNL1        0.0115
     26 C         129.4293  141.0553  155.9191 C.ar    1  UNL1        0.0577
     27 CL        127.9646  141.3518  155.7898 Cl      1  UNL1       -0.0822
     28 C         130.4311  141.8835  155.1704 C.ar    1  UNL1        0.0115
     29 C         131.8958  141.5870  155.2997 C.ar    1  UNL1        0.0054
     30 C         136.3620  138.9762  153.0927 C.3     1  UNL1        0.0017
     31 C         136.8627  139.2096  154.4873 C.3     1  UNL1        0.0196
@<TRIPOS>BOND
     1    30    31    1
     2    31    18    1
     3    18    19    1
     4    19    20   am
     5    20    21    2
     6    20    23    1
     7    23    24   ar
     8    24    25   ar
     9    25    26   ar
    10    26    27    1
    11    26    28   ar
    12    28    29   ar
    13     1    18    1
    14     1     2    1
    15     2     3    1
    16     3     4    1
    17     4     7    1
    18     7     8   ar
    19     8     9   ar
    20     9    10   ar
    21    10    11   ar
    22    11    12   ar
    23    12    13    1
    24    12    14   ar
    25    14    15    1
    26    14    16   ar
    27    16    17   ar
    28     4     5    1
    29     6     5    1
    30    29    23   ar
    31     6     1    1
    32     6     2    1
    33    17     7   ar
    34    17    10   ar
    35    19    22    1
@<TRIPOS>MOLECULE
*****
 31 35 0 0 0
SMALL
GASTEIGER

@<TRIPOS>ATOM
      1 C         139.5030  145.3225  156.4102 C.3     1  UNL1        0.0181
      2 C         140.0436  144.1441  157.1649 C.3     1  UNL1        0.0036
      3 C         140.7998  143.1704  158.0193 C.3     1  UNL1        0.0227
      4 C         141.9444  143.9028  158.6545 C.3     1  UNL1        0.0870
      5 C         141.8957  145.3291  158.1927 C.3     1  UNL1        0.0227
      6 C         140.7208  145.4783  157.2720 C.3     1  UNL1        0.0036
      7 N         142.9596  143.3124  159.5877 N.ar    1  UNL1       -0.3109
      8 C         143.9973  142.2903  159.2294 C.ar    1  UNL1        0.1785
      9 N         144.7944  141.9868  160.4633 N.ar    1  UNL1       -0.2239
     10 C         144.2492  142.8213  161.5843 C.ar    1  UNL1        0.1011
     11 C         144.6389  142.9410  163.0278 C.ar    1  UNL1        0.0526
     12 C         143.8946  143.8800  163.9302 C.ar    1  UNL1        0.1690
     13 F         144.2843  143.9997  165.3737 F       1  UNL1       -0.2017
     14 C         142.7607  144.6993  163.3890 C.ar    1  UNL1        0.1689
     15 F         142.0164  145.6383  164.2914 F       1  UNL1       -0.2017
     16 C         142.3710  144.5796  161.9454 C.ar    1  UNL1        0.0507
     17 C         143.1153  143.6406  161.0431 C.ar    1  UNL1        0.0813
     18 C         138.4878  145.9127  155.4770 C.3     1  UNL1        0.0718
     19 N         138.3823  147.4016  155.3281 N.am    1  UNL1       -0.3025
     20 C         139.4335  148.1558  154.5692 C.2     1  UNL1        0.2458
     21 O         140.5903  147.4213  153.9593 O.2     1  UNL1       -0.2701
     22 H         137.6230  147.8838  155.7284 H       1  UNL1        0.1497
     23 C         139.3279  149.6447  154.4203 C.ar    1  UNL1        0.0534
     24 C         139.8254  150.3107  153.1718 C.ar    1  UNL1        0.0054
     25 C         139.7199  151.7996  153.0228 C.ar    1  UNL1        0.0115
     26 C         139.1168  152.6224  154.1225 C.ar    1  UNL1        0.0577
     27 CL        139.0112  154.1113  153.9736 Cl      1  UNL1       -0.0822
     28 C         138.6192  151.9564  155.3710 C.ar    1  UNL1        0.0115
     29 C         138.7248  150.4675  155.5199 C.ar    1  UNL1        0.0054
     30 C         136.9019  143.8578  155.3676 C.3     1  UNL1        0.0017
     31 C         137.5781  145.0142  154.6928 C.3     1  UNL1        0.0196
@<TRIPOS>BOND
     1    30    31    1
     2    31    18    1
     3    18    19    1
     4    19    20   am
     5    20    21    2
     6    20    23    1
     7    23    24   ar
     8    24    25   ar
     9    25    26   ar
    10    26    27    1
    11    26    28   ar
    12    28    29   ar
    13     1    18    1
    14     1     2    1
    15     2     3    1
    16     3     4    1
    17     4     7    1
    18     7     8   ar
    19     8     9   ar
    20     9    10   ar
    21    10    11   ar
    22    11    12   ar
    23    12    13    1
    24    12    14   ar
    25    14    15    1
    26    14    16   ar
    27    16    17   ar
    28     4     5    1
    29     6     5    1
    30    29    23   ar
    31     6     1    1
    32     6     2    1
    33    17     7   ar
    34    17    10   ar
    35    19    22    1
@<TRIPOS>MOLECULE
*****
 31 35 0 0 0
SMALL
GASTEIGER

@<TRIPOS>ATOM
      1 C         142.7738  138.0827  159.5239 C.3     1  UNL1        0.0181
      2 C         143.4164  138.6798  160.7407 C.3     1  UNL1        0.0036
      3 C         143.8246  139.1353  162.1104 C.3     1  UNL1        0.0227
      4 C         142.8379  138.5828  163.0958 C.3     1  UNL1        0.0870
      5 C         141.8199  137.7858  162.3353 C.3     1  UNL1        0.0227
      6 C         142.1774  137.8457  160.8797 C.3     1  UNL1        0.0036
      7 N         142.8646  138.7908  164.5811 N.ar    1  UNL1       -0.3109
      8 C         144.0694  138.6713  165.4666 C.ar    1  UNL1        0.1785
      9 N         143.6405  138.9615  166.8744 N.ar    1  UNL1       -0.2239
     10 C         142.1706  139.2602  166.8589 C.ar    1  UNL1        0.1011
     11 C         141.2069  139.6146  167.9524 C.ar    1  UNL1        0.0526
     12 C         139.7636  139.8636  167.6284 C.ar    1  UNL1        0.1690
     13 F         138.7998  140.2181  168.7218 F       1  UNL1       -0.2017
     14 C         139.2840  139.7581  166.2111 C.ar    1  UNL1        0.1689
     15 F         137.8408  140.0071  165.8871 F       1  UNL1       -0.2017
     16 C         140.2478  139.4037  165.1176 C.ar    1  UNL1        0.0507
     17 C         141.6911  139.1547  165.4416 C.ar    1  UNL1        0.0813
     18 C         142.7473  137.8748  158.0387 C.3     1  UNL1        0.0718
     19 N         142.6728  136.4858  157.4770 N.am    1  UNL1       -0.3025
     20 C         143.5579  136.0913  156.3322 C.2     1  UNL1        0.2458
     21 O         144.5176  137.0856  155.7489 O.2     1  UNL1       -0.2701
     22 H         142.0429  135.8332  157.8598 H       1  UNL1        0.1497
     23 C         143.4834  134.7024  155.7705 C.ar    1  UNL1        0.0534
     24 C         144.1886  133.5743  156.4634 C.ar    1  UNL1        0.0054
     25 C         144.1141  132.1854  155.9017 C.ar    1  UNL1        0.0115
     26 C         143.3344  131.9246  154.6471 C.ar    1  UNL1        0.0577
     27 CL        143.2598  130.5358  154.0854 Cl      1  UNL1       -0.0822
     28 C         142.6291  133.0527  153.9542 C.ar    1  UNL1        0.0115
     29 C         142.7037  134.4416  154.5159 C.ar    1  UNL1        0.0054
     30 C         142.6277  140.4425  157.6614 C.3     1  UNL1        0.0017
     31 C         142.7952  139.0556  157.1150 C.3     1  UNL1        0.0196
@<TRIPOS>BOND
     1    30    31    1
     2    31    18    1
     3    18    19    1
     4    19    20   am
     5    20    21    2
     6    20    23    1
     7    23    24   ar
     8    24    25   ar
     9    25    26   ar
    10    26    27    1
    11    26    28   ar
    12    28    29   ar
    13     1    18    1
    14     1     2    1
    15     2     3    1
    16     3     4    1
    17     4     7    1
    18     7     8   ar
    19     8     9   ar
    20     9    10   ar
    21    10    11   ar
    22    11    12   ar
    23    12    13    1
    24    12    14   ar
    25    14    15    1
    26    14    16   ar
    27    16    17   ar
    28     4     5    1
    29     6     5    1
    30    29    23   ar
    31     6     1    1
    32     6     2    1
    33    17     7   ar
    34    17    10   ar
    35    19    22    1
@<TRIPOS>MOLECULE
*****
 31 35 0 0 0
SMALL
GASTEIGER

@<TRIPOS>ATOM
      1 C         137.3492  141.3574  157.1881 C.3     1  UNL1        0.0181
      2 C         137.9227  140.6770  158.3957 C.3     1  UNL1        0.0036
      3 C         138.6243  140.2772  159.6598 C.3     1  UNL1        0.0227
      4 C         139.3568  141.4772  160.1828 C.3     1  UNL1        0.0870
      5 C         139.1080  142.6186  159.2419 C.3     1  UNL1        0.0227
      6 C         138.2216  142.1241  158.1374 C.3     1  UNL1        0.0036
      7 N         140.1916  141.5269  161.4281 N.ar    1  UNL1       -0.3109
      8 C         141.5418  140.8995  161.6100 C.ar    1  UNL1        0.1785
      9 N         142.0074  141.1977  163.0044 N.ar    1  UNL1       -0.2239
     10 C         140.9449  142.0094  163.6842 C.ar    1  UNL1        0.1011
     11 C         140.8543  142.5896  165.0645 C.ar    1  UNL1        0.0526
     12 C         139.6414  143.3732  165.4706 C.ar    1  UNL1        0.1690
     13 F         139.5508  143.9534  166.8509 F       1  UNL1       -0.2017
     14 C         138.5191  143.5767  164.4963 C.ar    1  UNL1        0.1689
     15 F         137.3063  144.3603  164.9024 F       1  UNL1       -0.2017
     16 C         138.6098  142.9965  163.1160 C.ar    1  UNL1        0.0507
     17 C         139.8226  142.2129  162.7100 C.ar    1  UNL1        0.0813
     18 C         136.5144  141.3075  155.9429 C.3     1  UNL1        0.0718
     19 N         135.0237  141.4481  156.0333 N.am    1  UNL1       -0.3025
     20 C         134.1501  140.2307  155.9654 C.2     1  UNL1        0.2458
     21 O         134.7671  138.8727  155.8071 O.2     1  UNL1       -0.2701
     22 H         134.6186  142.3394  156.1371 H       1  UNL1        0.1497
     23 C         132.6594  140.3712  156.0557 C.ar    1  UNL1        0.0534
     24 C         131.9637  141.4738  155.3141 C.ar    1  UNL1        0.0054
     25 C         130.4729  141.6143  155.4045 C.ar    1  UNL1        0.0115
     26 C         129.6780  140.6521  156.2365 C.ar    1  UNL1        0.0577
     27 CL        128.1874  140.7925  156.3268 Cl      1  UNL1       -0.0822
     28 C         130.3738  139.5494  156.9781 C.ar    1  UNL1        0.0115
     29 C         131.8645  139.4089  156.8877 C.ar    1  UNL1        0.0054
     30 C         137.9116  139.8476  154.3101 C.3     1  UNL1        0.0017
     31 C         137.1701  141.1172  154.6074 C.3     1  UNL1        0.0196
@<TRIPOS>BOND
     1    30    31    1
     2    31    18    1
     3    18    19    1
     4    19    20   am
     5    20    21    2
     6    20    23    1
     7    23    24   ar
     8    24    25   ar
     9    25    26   ar
    10    26    27    1
    11    26    28   ar
    12    28    29   ar
    13     1    18    1
    14     1     2    1
    15     2     3    1
    16     3     4    1
    17     4     7    1
    18     7     8   ar
    19     8     9   ar
    20     9    10   ar
    21    10    11   ar
    22    11    12   ar
    23    12    13    1
    24    12    14   ar
    25    14    15    1
    26    14    16   ar
    27    16    17   ar
    28     4     5    1
    29     6     5    1
    30    29    23   ar
    31     6     1    1
    32     6     2    1
    33    17     7   ar
    34    17    10   ar
    35    19    22    1
