@<TRIPOS>MOLECULE
*****
 40 45 0 0 0
SMALL
GASTEIGER

@<TRIPOS>ATOM
      1 C         142.8103  135.8050  157.6852 C.ar    1  UNL1        0.2400
      2 N         142.2243  135.3513  156.3811 N.ar    1  UNL1       -0.2090
      3 C         141.4887  136.3260  155.5100 C.ar    1  UNL1        0.1021
      4 C         141.1576  137.8258  155.6447 C.ar    1  UNL1        0.0207
      5 C         141.9351  137.2815  156.8063 C.ar    1  UNL1        0.0221
      6 C         142.6605  137.2333  158.1183 C.ar    1  UNL1        0.1178
      7 N         143.2464  137.6869  159.4225 N.pl3   1  UNL1       -0.2104
      8 S         143.6221  138.5877  160.5615 S.O2    1  UNL1        0.0737
      9 O         144.3752  138.3705  161.8405 O.2     1  UNL1       -0.1499
     10 O         144.0985  137.1763  160.7382 O.2     1  UNL1       -0.1499
     11 C         143.7424  139.8270  161.3981 C.ar    1  UNL1        0.1253
     12 C         144.4678  139.7788  162.7101 C.ar    1  UNL1        0.0202
     13 C         144.5880  141.0181  163.5465 C.ar    1  UNL1        0.0015
     14 C         143.9828  142.3055  163.0710 C.ar    1  UNL1        0.0046
     15 C         143.2574  142.3538  161.7590 C.ar    1  UNL1        0.0547
     16 C         143.1372  141.1145  160.9226 C.ar    1  UNL1        0.0247
     17 C         142.5857  143.9878  161.3330 C.2     1  UNL1        0.2461
     18 O         142.9614  144.8886  162.4721 O.2     1  UNL1       -0.2701
     19 N         141.8500  144.9624  160.4619 N.am    1  UNL1       -0.2969
     20 C         141.0726  145.5067  159.3003 C.3     1  UNL1        0.1181
     21 C         140.3471  145.5549  157.9882 C.ar    1  UNL1        0.0166
     22 C         139.6259  146.6790  157.2181 C.ar    1  UNL1        0.0962
     23 N         138.9005  146.7272  155.9060 N.ar    1  UNL1       -0.2426
     24 C         138.7802  145.4879  155.0695 C.ar    1  UNL1        0.0988
     25 C         139.3854  144.2004  155.5450 C.ar    1  UNL1        0.0190
     26 C         139.7612  145.1012  156.6841 C.ar    1  UNL1        0.0005
     27 C         139.2652  142.9612  154.7086 C.ar    1  UNL1        0.0045
     28 C         138.5295  143.9358  153.8374 C.ar    1  UNL1        0.0207
     29 C         137.9436  143.4821  152.5332 C.ar    1  UNL1        0.0988
     30 N         138.0933  142.0539  152.1001 N.ar    1  UNL1       -0.2438
     31 C         138.8291  141.0792  152.9713 C.ar    1  UNL1        0.0813
     32 C         139.0882  139.4536  152.6418 C.ar    1  UNL1        0.0191
     33 C         139.8093  138.4220  153.4577 C.ar    1  UNL1        0.0016
     34 C         140.4219  138.8004  154.7736 C.ar    1  UNL1        0.0016
     35 C         139.8167  140.0879  154.2981 C.ar    1  UNL1        0.0015
     36 C         139.4150  141.5329  154.2755 C.ar    1  UNL1        0.0177
     37 H         143.6436  136.8419  159.7346 H       1  UNL1        0.1739
     38 H         141.9289  145.7758  161.0109 H       1  UNL1        0.1501
     39 C         144.1000  133.5673  157.9668 C.3     1  UNL1        0.2543
     40 O         143.5459  134.8303  158.5563 O.3     1  UNL1       -0.4553
@<TRIPOS>BOND
     1    39    40    1
     2    40     1    1
     3     1     2   ar
     4     2     3   ar
     5     3     4   ar
     6     4     5   ar
     7     5     6   ar
     8     6     7    1
     9     7     8    1
    10     8     9    2
    11     8    10    2
    12     8    11    1
    13    11    12   ar
    14    12    13   ar
    15    13    14   ar
    16    14    15   ar
    17    15    16   ar
    18    15    17    1
    19    17    18    2
    20    17    19   am
    21    19    20    1
    22    20    21    1
    23    21    22   ar
    24    22    23   ar
    25    23    24   ar
    26    24    25   ar
    27    25    26   ar
    28    25    27    1
    29    27    28   ar
    30    28    29   ar
    31    29    30   ar
    32    30    31   ar
    33    31    32   ar
    34    32    33   ar
    35    33    34   ar
    36    34    35   ar
    37    35    36   ar
    38     6     1   ar
    39    16    11   ar
    40    26    21   ar
    41    36    27   ar
    42    34     4    1
    43    36    31   ar
    44     7    37    1
    45    19    38    1
@<TRIPOS>MOLECULE
*****
 40 45 0 0 0
SMALL
GASTEIGER

@<TRIPOS>ATOM
      1 C         140.2188  145.6435  154.9278 C.ar    1  UNL1        0.2400
      2 N         139.8290  146.7735  155.8341 N.ar    1  UNL1       -0.2090
      3 C         139.8634  146.5874  157.3221 C.ar    1  UNL1        0.1021
      4 C         140.2387  145.4009  158.2323 C.ar    1  UNL1        0.0207
      5 C         140.3671  145.0927  156.7699 C.ar    1  UNL1        0.0221
      6 C         140.6428  144.3276  155.5096 C.ar    1  UNL1        0.1178
      7 N         141.0326  143.1976  154.6033 N.pl3   1  UNL1       -0.2104
      8 S         141.4893  141.8393  154.1604 S.O2    1  UNL1        0.0737
      9 O         141.7189  141.2187  152.8143 O.2     1  UNL1       -0.1499
     10 O         141.2025  142.7707  153.0201 O.2     1  UNL1       -0.1499
     11 C         141.9580  140.4162  154.2343 C.ar    1  UNL1        0.1253
     12 C         142.2337  139.6511  152.9739 C.ar    1  UNL1        0.0202
     13 C         142.7024  138.2281  153.0478 C.ar    1  UNL1        0.0015
     14 C         142.8953  137.5703  154.3820 C.ar    1  UNL1        0.0046
     15 C         142.6196  138.3355  155.6423 C.ar    1  UNL1        0.0547
     16 C         142.1509  139.7584  155.5685 C.ar    1  UNL1        0.0247
     17 C         142.9033  137.3923  157.1697 C.2     1  UNL1        0.2461
     18 O         143.3600  136.0339  156.7268 O.2     1  UNL1       -0.2701
     19 N         142.9375  137.2063  158.6577 N.am    1  UNL1       -0.2969
     20 C         142.8091  137.5144  160.1200 C.3     1  UNL1        0.1181
     21 C         142.5333  138.2796  161.3804 C.ar    1  UNL1        0.0166
     22 C         142.6242  137.9219  162.8773 C.ar    1  UNL1        0.0962
     23 N         142.3484  138.6872  164.1377 N.ar    1  UNL1       -0.2426
     24 C         141.8798  140.1101  164.0638 C.ar    1  UNL1        0.0988
     25 C         141.6869  140.7679  162.7296 C.ar    1  UNL1        0.0190
     26 C         142.1436  139.4096  162.2867 C.ar    1  UNL1        0.0005
     27 C         141.2182  142.1909  162.6557 C.ar    1  UNL1        0.0045
     28 C         141.2525  142.0049  164.1438 C.ar    1  UNL1        0.0207
     29 C         140.8627  143.1349  165.0500 C.ar    1  UNL1        0.0988
     30 N         140.4387  144.4508  164.4684 N.ar    1  UNL1       -0.2438
     31 C         140.4044  144.6368  162.9802 C.ar    1  UNL1        0.0813
     32 C         139.9575  146.0349  162.1653 C.ar    1  UNL1        0.0191
     33 C         139.8980  146.2966  160.6895 C.ar    1  UNL1        0.0016
     34 C         140.2730  145.2149  159.7203 C.ar    1  UNL1        0.0016
     35 C         140.4659  144.5571  161.0545 C.ar    1  UNL1        0.0015
     36 C         140.7942  143.5069  162.0739 C.ar    1  UNL1        0.0177
     37 H         140.9060  143.6294  153.7276 H       1  UNL1        0.1739
     38 H         143.2451  136.2724  158.7062 H       1  UNL1        0.1501
     39 C         141.3333  146.4934  152.7403 C.3     1  UNL1        0.2543
     40 O         140.1845  145.8296  153.4399 O.3     1  UNL1       -0.4553
@<TRIPOS>BOND
     1    39    40    1
     2    40     1    1
     3     1     2   ar
     4     2     3   ar
     5     3     4   ar
     6     4     5   ar
     7     5     6   ar
     8     6     7    1
     9     7     8    1
    10     8     9    2
    11     8    10    2
    12     8    11    1
    13    11    12   ar
    14    12    13   ar
    15    13    14   ar
    16    14    15   ar
    17    15    16   ar
    18    15    17    1
    19    17    18    2
    20    17    19   am
    21    19    20    1
    22    20    21    1
    23    21    22   ar
    24    22    23   ar
    25    23    24   ar
    26    24    25   ar
    27    25    26   ar
    28    25    27    1
    29    27    28   ar
    30    28    29   ar
    31    29    30   ar
    32    30    31   ar
    33    31    32   ar
    34    32    33   ar
    35    33    34   ar
    36    34    35   ar
    37    35    36   ar
    38     6     1   ar
    39    16    11   ar
    40    26    21   ar
    41    36    27   ar
    42    34     4    1
    43    36    31   ar
    44     7    37    1
    45    19    38    1
@<TRIPOS>MOLECULE
*****
 40 45 0 0 0
SMALL
GASTEIGER

@<TRIPOS>ATOM
      1 C         139.2434  147.0548  156.8442 C.ar    1  UNL1        0.2400
      2 N         139.1817  147.0141  155.3461 N.ar    1  UNL1       -0.2090
      3 C         139.5750  145.7660  154.6130 C.ar    1  UNL1        0.1021
      4 C         140.0756  144.3818  155.0719 C.ar    1  UNL1        0.0207
      5 C         139.8080  145.3243  156.2078 C.ar    1  UNL1        0.0221
      6 C         139.6984  145.8475  157.6093 C.ar    1  UNL1        0.1178
      7 N         139.7601  145.8882  159.1074 N.pl3   1  UNL1       -0.2104
      8 S         139.9856  145.4417  160.5215 S.O2    1  UNL1        0.0737
      9 O         139.8209  146.1143  161.8521 O.2     1  UNL1       -0.1499
     10 O         139.4930  146.8546  160.4161 O.2     1  UNL1       -0.1499
     11 C         140.3477  144.5616  161.6811 C.ar    1  UNL1        0.1253
     12 C         140.2381  145.0848  163.0826 C.ar    1  UNL1        0.0202
     13 C         140.6002  144.2048  164.2421 C.ar    1  UNL1        0.0015
     14 C         141.0719  142.8016  164.0000 C.ar    1  UNL1        0.0046
     15 C         141.1814  142.2784  162.5985 C.ar    1  UNL1        0.0547
     16 C         140.8193  143.1584  161.4391 C.ar    1  UNL1        0.0247
     17 C         141.7675  140.5620  162.4824 C.2     1  UNL1        0.2461
     18 O         141.9930  140.1154  163.8965 O.2     1  UNL1       -0.2701
     19 N         142.1608  139.3140  161.7491 N.am    1  UNL1       -0.2969
     20 C         142.4284  138.3715  160.6134 C.3     1  UNL1        0.1181
     21 C         142.5380  137.8483  159.2118 C.ar    1  UNL1        0.0166
     22 C         142.9750  136.4941  158.6185 C.ar    1  UNL1        0.0962
     23 N         143.0846  135.9709  157.2169 N.ar    1  UNL1       -0.2426
     24 C         142.7225  136.8509  156.0575 C.ar    1  UNL1        0.0988
     25 C         142.2508  138.2541  156.2995 C.ar    1  UNL1        0.0190
     26 C         142.4763  137.8075  157.7136 C.ar    1  UNL1        0.0005
     27 C         141.8887  139.1342  155.1400 C.ar    1  UNL1        0.0045
     28 C         142.2821  137.8860  154.4068 C.ar    1  UNL1        0.0207
     29 C         142.2204  137.8453  152.9087 C.ar    1  UNL1        0.0988
     30 N         141.7654  139.0526  152.1436 N.ar    1  UNL1       -0.2438
     31 C         141.3720  140.3008  152.8768 C.ar    1  UNL1        0.0813
     32 C         140.8425  141.7343  152.1819 C.ar    1  UNL1        0.0191
     33 C         140.4337  143.0168  152.8437 C.ar    1  UNL1        0.0016
     34 C         140.4689  143.1337  154.3388 C.ar    1  UNL1        0.0016
     35 C         140.9406  141.7305  154.0968 C.ar    1  UNL1        0.0015
     36 C         141.4337  140.3415  154.3750 C.ar    1  UNL1        0.0177
     37 H         139.4505  146.8092  159.2663 H       1  UNL1        0.1739
     38 H         142.3984  138.7364  162.5102 H       1  UNL1        0.1501
     39 C         138.4751  149.5365  156.8108 C.3     1  UNL1        0.2543
     40 O         138.8500  148.3029  157.5774 O.3     1  UNL1       -0.4553
@<TRIPOS>BOND
     1    39    40    1
     2    40     1    1
     3     1     2   ar
     4     2     3   ar
     5     3     4   ar
     6     4     5   ar
     7     5     6   ar
     8     6     7    1
     9     7     8    1
    10     8     9    2
    11     8    10    2
    12     8    11    1
    13    11    12   ar
    14    12    13   ar
    15    13    14   ar
    16    14    15   ar
    17    15    16   ar
    18    15    17    1
    19    17    18    2
    20    17    19   am
    21    19    20    1
    22    20    21    1
    23    21    22   ar
    24    22    23   ar
    25    23    24   ar
    26    24    25   ar
    27    25    26   ar
    28    25    27    1
    29    27    28   ar
    30    28    29   ar
    31    29    30   ar
    32    30    31   ar
    33    31    32   ar
    34    32    33   ar
    35    33    34   ar
    36    34    35   ar
    37    35    36   ar
    38     6     1   ar
    39    16    11   ar
    40    26    21   ar
    41    36    27   ar
    42    34     4    1
    43    36    31   ar
    44     7    37    1
    45    19    38    1
@<TRIPOS>MOLECULE
*****
 40 45 0 0 0
SMALL
GASTEIGER

@<TRIPOS>ATOM
      1 C         142.8181  136.8961  155.6049 C.ar    1  UNL1        0.2400
      2 N         143.0697  135.9726  156.7598 N.ar    1  UNL1       -0.2090
      3 C         142.8982  136.4660  158.1658 C.ar    1  UNL1        0.1021
      4 C         142.4860  137.8241  158.7683 C.ar    1  UNL1        0.0207
      5 C         142.5139  137.8225  157.2685 C.ar    1  UNL1        0.0221
      6 C         142.3949  138.3131  155.8560 C.ar    1  UNL1        0.1178
      7 N         142.1433  139.2366  154.7011 N.pl3   1  UNL1       -0.2104
      8 S         141.7894  140.4816  153.9431 S.O2    1  UNL1        0.0737
      9 O         141.7186  140.8119  152.4817 O.2     1  UNL1       -0.1499
     10 O         142.1468  139.3268  153.0550 O.2     1  UNL1       -0.1499
     11 C         141.3760  141.8981  153.6734 C.ar    1  UNL1        0.1253
     12 C         141.2569  142.3887  152.2609 C.ar    1  UNL1        0.0202
     13 C         140.8435  143.8051  151.9913 C.ar    1  UNL1        0.0015
     14 C         140.5491  144.7310  153.1341 C.ar    1  UNL1        0.0046
     15 C         140.6681  144.2404  154.5466 C.ar    1  UNL1        0.0547
     16 C         141.0815  142.8240  154.8162 C.ar    1  UNL1        0.0247
     17 C         140.2766  145.4876  155.8091 C.2     1  UNL1        0.2461
     18 O         139.9227  146.7327  155.0511 O.2     1  UNL1       -0.2701
     19 N         140.1051  145.9810  157.2152 N.am    1  UNL1       -0.2969
     20 C         140.0771  145.9826  158.7149 C.3     1  UNL1        0.1181
     21 C         140.1961  145.4920  160.1275 C.ar    1  UNL1        0.0166
     22 C         139.9747  146.1564  161.5010 C.ar    1  UNL1        0.0962
     23 N         140.0938  145.6658  162.9135 N.ar    1  UNL1       -0.2426
     24 C         140.5072  144.2494  163.1832 C.ar    1  UNL1        0.0988
     25 C         140.8016  143.3235  162.0404 C.ar    1  UNL1        0.0190
     26 C         140.4478  144.5686  161.2824 C.ar    1  UNL1        0.0005
     27 C         141.2151  141.9071  162.3100 C.ar    1  UNL1        0.0045
     28 C         141.0436  142.4005  163.7162 C.ar    1  UNL1        0.0207
     29 C         141.2952  141.4770  164.8711 C.ar    1  UNL1        0.0988
     30 N         141.7184  140.0600  164.6200 N.ar    1  UNL1       -0.2438
     31 C         141.8899  139.5666  163.2138 C.ar    1  UNL1        0.0813
     32 C         142.3551  138.0201  162.7550 C.ar    1  UNL1        0.0191
     33 C         142.5473  137.4547  161.3790 C.ar    1  UNL1        0.0016
     34 C         142.3145  138.3176  160.1743 C.ar    1  UNL1        0.0016
     35 C         142.0201  139.2435  161.3171 C.ar    1  UNL1        0.0015
     36 C         141.6383  140.4900  162.0589 C.ar    1  UNL1        0.0177
     37 H         142.3366  138.6289  153.9510 H       1  UNL1        0.1739
     38 H         139.8337  146.9107  157.0382 H       1  UNL1        0.1501
     39 C         141.8464  135.7353  153.4934 C.3     1  UNL1        0.2543
     40 O         142.9896  136.4026  154.1988 O.3     1  UNL1       -0.4553
@<TRIPOS>BOND
     1    39    40    1
     2    40     1    1
     3     1     2   ar
     4     2     3   ar
     5     3     4   ar
     6     4     5   ar
     7     5     6   ar
     8     6     7    1
     9     7     8    1
    10     8     9    2
    11     8    10    2
    12     8    11    1
    13    11    12   ar
    14    12    13   ar
    15    13    14   ar
    16    14    15   ar
    17    15    16   ar
    18    15    17    1
    19    17    18    2
    20    17    19   am
    21    19    20    1
    22    20    21    1
    23    21    22   ar
    24    22    23   ar
    25    23    24   ar
    26    24    25   ar
    27    25    26   ar
    28    25    27    1
    29    27    28   ar
    30    28    29   ar
    31    29    30   ar
    32    30    31   ar
    33    31    32   ar
    34    32    33   ar
    35    33    34   ar
    36    34    35   ar
    37    35    36   ar
    38     6     1   ar
    39    16    11   ar
    40    26    21   ar
    41    36    27   ar
    42    34     4    1
    43    36    31   ar
    44     7    37    1
    45    19    38    1
@<TRIPOS>MOLECULE
*****
 40 45 0 0 0
SMALL
GASTEIGER

@<TRIPOS>ATOM
      1 C         137.9893  143.6858  153.7219 C.ar    1  UNL1        0.2400
      2 N         137.9325  144.9943  154.4531 N.ar    1  UNL1       -0.2090
      3 C         138.5841  145.1313  155.7971 C.ar    1  UNL1        0.1021
      4 C         139.3742  144.1580  156.6948 C.ar    1  UNL1        0.0207
      5 C         138.9129  143.5395  155.4084 C.ar    1  UNL1        0.0221
      6 C         138.6978  142.5143  154.3349 C.ar    1  UNL1        0.1178
      7 N         138.7545  141.2058  153.6037 N.pl3   1  UNL1       -0.2104
      8 S         139.0765  139.7719  153.3031 S.O2    1  UNL1        0.0737
      9 O         138.7749  138.8706  152.1426 O.2     1  UNL1       -0.1499
     10 O         138.2893  140.4442  152.2176 O.2     1  UNL1       -0.1499
     11 C         139.6247  138.3856  153.4693 C.ar    1  UNL1        0.1253
     12 C         139.4096  137.3603  152.3958 C.ar    1  UNL1        0.0202
     13 C         139.9578  135.9740  152.5620 C.ar    1  UNL1        0.0015
     14 C         140.7212  135.6130  153.8017 C.ar    1  UNL1        0.0046
     15 C         140.9364  136.6383  154.8752 C.ar    1  UNL1        0.0547
     16 C         140.3882  138.0246  154.7090 C.ar    1  UNL1        0.0247
     17 C         141.8797  136.0377  156.3077 C.2     1  UNL1        0.2461
     18 O         142.2017  134.6038  156.0071 O.2     1  UNL1       -0.2701
     19 N         142.5313  136.1747  157.6518 N.am    1  UNL1       -0.2969
     20 C         142.9925  136.7931  158.9382 C.3     1  UNL1        0.1181
     21 C         143.2077  137.8185  160.0118 C.ar    1  UNL1        0.0166
     22 C         143.9254  137.7882  161.3759 C.ar    1  UNL1        0.0962
     23 N         144.1406  138.8136  162.4494 N.ar    1  UNL1       -0.2426
     24 C         143.5924  140.1998  162.2832 C.ar    1  UNL1        0.0988
     25 C         142.8290  140.5608  161.0435 C.ar    1  UNL1        0.0190
     26 C         143.1509  139.1269  160.7429 C.ar    1  UNL1        0.0005
     27 C         142.2807  141.9471  160.8773 C.ar    1  UNL1        0.0045
     28 C         142.9324  142.0841  162.2215 C.ar    1  UNL1        0.0207
     29 C         142.8755  143.3926  162.9526 C.ar    1  UNL1        0.0988
     30 N         142.1671  144.5641  162.3397 N.ar    1  UNL1       -0.2438
     31 C         141.5155  144.4271  160.9955 C.ar    1  UNL1        0.0813
     32 C         140.6857  145.6293  160.1682 C.ar    1  UNL1        0.0191
     33 C         140.0112  145.5695  158.8297 C.ar    1  UNL1        0.0016
     34 C         140.0258  144.2950  158.0389 C.ar    1  UNL1        0.0016
     35 C         140.7892  143.9340  159.2786 C.ar    1  UNL1        0.0015
     36 C         141.5723  143.1186  160.2643 C.ar    1  UNL1        0.0177
     37 H         138.2535  141.4427  152.7900 H       1  UNL1        0.1739
     38 H         142.8911  135.2648  157.7609 H       1  UNL1        0.1501
     39 C         135.8648  143.2817  152.2820 C.3     1  UNL1        0.2543
     40 O         137.3377  143.5488  152.3778 O.3     1  UNL1       -0.4553
@<TRIPOS>BOND
     1    39    40    1
     2    40     1    1
     3     1     2   ar
     4     2     3   ar
     5     3     4   ar
     6     4     5   ar
     7     5     6   ar
     8     6     7    1
     9     7     8    1
    10     8     9    2
    11     8    10    2
    12     8    11    1
    13    11    12   ar
    14    12    13   ar
    15    13    14   ar
    16    14    15   ar
    17    15    16   ar
    18    15    17    1
    19    17    18    2
    20    17    19   am
    21    19    20    1
    22    20    21    1
    23    21    22   ar
    24    22    23   ar
    25    23    24   ar
    26    24    25   ar
    27    25    26   ar
    28    25    27    1
    29    27    28   ar
    30    28    29   ar
    31    29    30   ar
    32    30    31   ar
    33    31    32   ar
    34    32    33   ar
    35    33    34   ar
    36    34    35   ar
    37    35    36   ar
    38     6     1   ar
    39    16    11   ar
    40    26    21   ar
    41    36    27   ar
    42    34     4    1
    43    36    31   ar
    44     7    37    1
    45    19    38    1
@<TRIPOS>MOLECULE
*****
 40 45 0 0 0
SMALL
GASTEIGER

@<TRIPOS>ATOM
      1 C         139.7538  145.3739  162.2537 C.ar    1  UNL1        0.2400
      2 N         139.4319  146.6342  161.5068 N.ar    1  UNL1       -0.2090
      3 C         139.6184  146.6931  160.0197 C.ar    1  UNL1        0.1021
      4 C         140.1083  145.6726  158.9729 C.ar    1  UNL1        0.0207
      5 C         140.0970  145.1311  160.3717 C.ar    1  UNL1        0.0221
      6 C         140.2622  144.1724  161.5134 C.ar    1  UNL1        0.1178
      7 N         140.5841  142.9120  162.2604 N.pl3   1  UNL1       -0.2104
      8 S         141.0238  141.5021  162.5224 S.O2    1  UNL1        0.0737
      9 O         141.1314  140.6718  163.7670 O.2     1  UNL1       -0.1499
     10 O         140.6045  142.2339  163.7628 O.2     1  UNL1       -0.1499
     11 C         141.5283  140.1125  162.2679 C.ar    1  UNL1        0.1253
     12 C         141.6935  139.1538  163.4096 C.ar    1  UNL1        0.0202
     13 C         142.1980  137.7643  163.1551 C.ar    1  UNL1        0.0015
     14 C         142.5372  137.3335  161.7589 C.ar    1  UNL1        0.0046
     15 C         142.3719  138.2922  160.6172 C.ar    1  UNL1        0.0547
     16 C         141.8675  139.6817  160.8717 C.ar    1  UNL1        0.0247
     17 C         142.8269  137.6118  158.9946 C.2     1  UNL1        0.2461
     18 O         143.2666  136.2018  159.2566 O.2     1  UNL1       -0.2701
     19 N         143.0134  137.6708  157.5074 N.am    1  UNL1       -0.2969
     20 C         143.0247  138.2122  156.1086 C.3     1  UNL1        0.1181
     21 C         142.8594  139.1709  154.9669 C.ar    1  UNL1        0.0166
     22 C         143.1068  139.0622  153.4490 C.ar    1  UNL1        0.0962
     23 N         142.9415  140.0210  152.3073 N.ar    1  UNL1       -0.2426
     24 C         142.4371  141.4105  152.5618 C.ar    1  UNL1        0.0988
     25 C         142.0979  141.8413  153.9580 C.ar    1  UNL1        0.0190
     26 C         142.5376  140.4313  154.2200 C.ar    1  UNL1        0.0005
     27 C         141.5934  143.2307  154.2125 C.ar    1  UNL1        0.0045
     28 C         141.7799  143.2897  152.7252 C.ar    1  UNL1        0.0207
     29 C         141.4580  144.5501  151.9783 C.ar    1  UNL1        0.0988
     30 N         140.9496  145.7515  152.7186 N.ar    1  UNL1       -0.2438
     31 C         140.7631  145.6926  154.2058 C.ar    1  UNL1        0.0813
     32 C         140.2070  146.9370  155.1859 C.ar    1  UNL1        0.0191
     33 C         139.9949  146.9546  156.6708 C.ar    1  UNL1        0.0016
     34 C         140.2948  145.7315  157.4857 C.ar    1  UNL1        0.0016
     35 C         140.6340  145.3007  156.0895 C.ar    1  UNL1        0.0015
     36 C         141.0850  144.4322  154.9528 C.ar    1  UNL1        0.0177
     37 H         140.3614  143.1948  163.1767 H       1  UNL1        0.1739
     38 H         143.3445  136.7588  157.3404 H       1  UNL1        0.1501
     39 C         138.3414  144.6717  164.3182 C.3     1  UNL1        0.2543
     40 O         139.5673  145.3150  163.7409 O.3     1  UNL1       -0.4553
@<TRIPOS>BOND
     1    39    40    1
     2    40     1    1
     3     1     2   ar
     4     2     3   ar
     5     3     4   ar
     6     4     5   ar
     7     5     6   ar
     8     6     7    1
     9     7     8    1
    10     8     9    2
    11     8    10    2
    12     8    11    1
    13    11    12   ar
    14    12    13   ar
    15    13    14   ar
    16    14    15   ar
    17    15    16   ar
    18    15    17    1
    19    17    18    2
    20    17    19   am
    21    19    20    1
    22    20    21    1
    23    21    22   ar
    24    22    23   ar
    25    23    24   ar
    26    24    25   ar
    27    25    26   ar
    28    25    27    1
    29    27    28   ar
    30    28    29   ar
    31    29    30   ar
    32    30    31   ar
    33    31    32   ar
    34    32    33   ar
    35    33    34   ar
    36    34    35   ar
    37    35    36   ar
    38     6     1   ar
    39    16    11   ar
    40    26    21   ar
    41    36    27   ar
    42    34     4    1
    43    36    31   ar
    44     7    37    1
    45    19    38    1
@<TRIPOS>MOLECULE
*****
 40 45 0 0 0
SMALL
GASTEIGER

@<TRIPOS>ATOM
      1 C         139.1173  145.3603  155.9053 C.ar    1  UNL1        0.2400
      2 N         138.5993  145.0761  154.5266 N.ar    1  UNL1       -0.2090
      3 C         138.7532  143.7062  153.9352 C.ar    1  UNL1        0.1021
      4 C         139.3751  142.3936  154.4523 C.ar    1  UNL1        0.0207
      5 C         139.4654  143.5226  155.4358 C.ar    1  UNL1        0.0221
      6 C         139.7891  144.2745  156.6927 C.ar    1  UNL1        0.1178
      7 N         140.3071  144.5587  158.0714 N.pl3   1  UNL1       -0.2104
      8 S         140.9569  144.3408  159.4057 S.O2    1  UNL1        0.0737
      9 O         141.2058  145.2310  160.5870 O.2     1  UNL1       -0.1499
     10 O         140.4509  145.7397  159.2126 O.2     1  UNL1       -0.1499
     11 C         141.6601  143.6472  160.5346 C.ar    1  UNL1        0.1253
     12 C         141.9838  144.3991  161.7915 C.ar    1  UNL1        0.0202
     13 C         142.6870  143.7055  162.9204 C.ar    1  UNL1        0.0015
     14 C         143.0665  142.2600  162.7923 C.ar    1  UNL1        0.0046
     15 C         142.7428  141.5081  161.5355 C.ar    1  UNL1        0.0547
     16 C         142.0396  142.2017  160.4066 C.ar    1  UNL1        0.0247
     17 C         143.2708  139.7691  161.5447 C.2     1  UNL1        0.2461
     18 O         143.9206  139.5512  162.8790 O.2     1  UNL1       -0.2701
     19 N         143.4247  138.3993  160.9533 N.am    1  UNL1       -0.2969
     20 C         143.3343  137.2703  159.9699 C.3     1  UNL1        0.1181
     21 C         143.0106  136.5183  158.7129 C.ar    1  UNL1        0.0166
     22 C         143.2493  135.0648  158.2577 C.ar    1  UNL1        0.0962
     23 N         142.9255  134.3129  157.0007 N.ar    1  UNL1       -0.2426
     24 C         142.2223  135.0065  155.8719 C.ar    1  UNL1        0.0988
     25 C         141.8428  136.4520  155.9999 C.ar    1  UNL1        0.0190
     26 C         142.4926  136.2341  157.3342 C.ar    1  UNL1        0.0005
     27 C         141.1396  137.1457  154.8710 C.ar    1  UNL1        0.0045
     28 C         141.2935  135.7757  154.2795 C.ar    1  UNL1        0.0207
     29 C         140.7755  135.4916  152.9008 C.ar    1  UNL1        0.0988
     30 N         140.1037  136.5773  152.1135 N.ar    1  UNL1       -0.2438
     31 C         139.9498  137.9472  152.7049 C.ar    1  UNL1        0.0813
     32 C         139.2279  139.2710  151.9669 C.ar    1  UNL1        0.0191
     33 C         139.0373  140.6638  152.4902 C.ar    1  UNL1        0.0016
     34 C         139.5289  141.0237  153.8609 C.ar    1  UNL1        0.0016
     35 C         139.9084  139.5782  153.7329 C.ar    1  UNL1        0.0015
     36 C         140.4678  138.2314  154.0837 C.ar    1  UNL1        0.0177
     37 H         140.0580  145.5075  158.1554 H       1  UNL1        0.1739
     38 H         143.8862  137.9440  161.6942 H       1  UNL1        0.1501
     39 C         139.0647  147.9419  155.6185 C.3     1  UNL1        0.2543
     40 O         138.9634  146.7301  156.4967 O.3     1  UNL1       -0.4553
@<TRIPOS>BOND
     1    39    40    1
     2    40     1    1
     3     1     2   ar
     4     2     3   ar
     5     3     4   ar
     6     4     5   ar
     7     5     6   ar
     8     6     7    1
     9     7     8    1
    10     8     9    2
    11     8    10    2
    12     8    11    1
    13    11    12   ar
    14    12    13   ar
    15    13    14   ar
    16    14    15   ar
    17    15    16   ar
    18    15    17    1
    19    17    18    2
    20    17    19   am
    21    19    20    1
    22    20    21    1
    23    21    22   ar
    24    22    23   ar
    25    23    24   ar
    26    24    25   ar
    27    25    26   ar
    28    25    27    1
    29    27    28   ar
    30    28    29   ar
    31    29    30   ar
    32    30    31   ar
    33    31    32   ar
    34    32    33   ar
    35    33    34   ar
    36    34    35   ar
    37    35    36   ar
    38     6     1   ar
    39    16    11   ar
    40    26    21   ar
    41    36    27   ar
    42    34     4    1
    43    36    31   ar
    44     7    37    1
    45    19    38    1
@<TRIPOS>MOLECULE
*****
 40 45 0 0 0
SMALL
GASTEIGER

@<TRIPOS>ATOM
      1 C         142.7936  143.4629  161.9171 C.ar    1  UNL1        0.2400
      2 N         143.4450  142.3533  162.6881 N.ar    1  UNL1       -0.2090
      3 C         143.5199  140.9752  162.1008 C.ar    1  UNL1        0.1021
      4 C         143.0430  140.3653  160.7674 C.ar    1  UNL1        0.0207
      5 C         142.7302  141.8265  160.8989 C.ar    1  UNL1        0.0221
      6 C         142.2171  143.1942  160.5585 C.ar    1  UNL1        0.1178
      7 N         141.5658  144.3038  159.7874 N.pl3   1  UNL1       -0.2104
      8 S         140.8546  145.0212  158.6786 S.O2    1  UNL1        0.0737
      9 O         140.4025  146.4394  158.4937 O.2     1  UNL1       -0.1499
     10 O         141.1816  145.9059  159.8450 O.2     1  UNL1       -0.1499
     11 C         140.1695  145.2601  157.3657 C.ar    1  UNL1        0.1253
     12 C         139.6564  146.6279  157.0254 C.ar    1  UNL1        0.0202
     13 C         138.9713  146.8666  155.7125 C.ar    1  UNL1        0.0015
     14 C         138.7992  145.7376  154.7401 C.ar    1  UNL1        0.0046
     15 C         139.3123  144.3698  155.0804 C.ar    1  UNL1        0.0547
     16 C         139.9974  144.1310  156.3932 C.ar    1  UNL1        0.0247
     17 C         139.0226  143.1187  153.7945 C.2     1  UNL1        0.2461
     18 O         138.3114  143.8361  152.6856 O.2     1  UNL1       -0.2701
     19 N         139.0975  141.7405  153.2072 N.am    1  UNL1       -0.2969
     20 C         139.4103  140.2794  153.0756 C.3     1  UNL1        0.1181
     21 C         139.9234  138.9116  153.4161 C.ar    1  UNL1        0.0166
     22 C         139.9156  137.5622  152.6703 C.ar    1  UNL1        0.0962
     23 N         140.4287  136.1944  153.0107 N.ar    1  UNL1       -0.2426
     24 C         141.1138  135.9556  154.3235 C.ar    1  UNL1        0.0988
     25 C         141.2859  137.0846  155.2960 C.ar    1  UNL1        0.0190
     26 C         140.5748  137.8020  154.1871 C.ar    1  UNL1        0.0005
     27 C         141.9710  136.8458  156.6088 C.ar    1  UNL1        0.0045
     28 C         142.0460  135.4676  156.0215 C.ar    1  UNL1        0.0207
     29 C         142.6973  134.3581  156.7926 C.ar    1  UNL1        0.0988
     30 N         143.2738  134.6267  158.1511 N.ar    1  UNL1       -0.2438
     31 C         143.1989  136.0049  158.7384 C.ar    1  UNL1        0.0813
     32 C         143.7895  136.4780  160.2370 C.ar    1  UNL1        0.0191
     33 C         143.7528  137.8281  160.8897 C.ar    1  UNL1        0.0016
     34 C         143.1179  138.9872  160.1801 C.ar    1  UNL1        0.0016
     35 C         142.9458  137.8582  159.2076 C.ar    1  UNL1        0.0015
     36 C         142.5475  137.1145  157.9674 C.ar    1  UNL1        0.0177
     37 H         141.6787  145.0448  160.4257 H       1  UNL1        0.1739
     38 H         138.6478  141.8973  152.3455 H       1  UNL1        0.1501
     39 C         141.6945  145.1542  163.5546 C.3     1  UNL1        0.2543
     40 O         142.7188  144.8410  162.5044 O.3     1  UNL1       -0.4553
@<TRIPOS>BOND
     1    39    40    1
     2    40     1    1
     3     1     2   ar
     4     2     3   ar
     5     3     4   ar
     6     4     5   ar
     7     5     6   ar
     8     6     7    1
     9     7     8    1
    10     8     9    2
    11     8    10    2
    12     8    11    1
    13    11    12   ar
    14    12    13   ar
    15    13    14   ar
    16    14    15   ar
    17    15    16   ar
    18    15    17    1
    19    17    18    2
    20    17    19   am
    21    19    20    1
    22    20    21    1
    23    21    22   ar
    24    22    23   ar
    25    23    24   ar
    26    24    25   ar
    27    25    26   ar
    28    25    27    1
    29    27    28   ar
    30    28    29   ar
    31    29    30   ar
    32    30    31   ar
    33    31    32   ar
    34    32    33   ar
    35    33    34   ar
    36    34    35   ar
    37    35    36   ar
    38     6     1   ar
    39    16    11   ar
    40    26    21   ar
    41    36    27   ar
    42    34     4    1
    43    36    31   ar
    44     7    37    1
    45    19    38    1
@<TRIPOS>MOLECULE
*****
 40 45 0 0 0
SMALL
GASTEIGER

@<TRIPOS>ATOM
      1 C         138.7768  141.6027  153.4150 C.ar    1  UNL1        0.2400
      2 N         138.4444  143.0295  153.7370 N.ar    1  UNL1       -0.2090
      3 C         138.8632  143.6189  155.0511 C.ar    1  UNL1        0.1021
      4 C         139.6264  143.0582  156.2678 C.ar    1  UNL1        0.0207
      5 C         139.4468  142.0571  155.1652 C.ar    1  UNL1        0.0221
      6 C         139.5281  140.7653  154.4072 C.ar    1  UNL1        0.1178
      7 N         139.8605  139.3385  154.0852 N.pl3   1  UNL1       -0.2104
      8 S         140.4040  137.9488  154.2381 S.O2    1  UNL1        0.0737
      9 O         140.3979  136.7380  153.3527 O.2     1  UNL1       -0.1499
     10 O         139.7102  138.1746  152.9274 O.2     1  UNL1       -0.1499
     11 C         141.0929  136.7638  154.8473 C.ar    1  UNL1        0.1253
     12 C         141.1742  135.4720  154.0893 C.ar    1  UNL1        0.0202
     13 C         141.8631  134.2870  154.6986 C.ar    1  UNL1        0.0015
     14 C         142.4707  134.3939  156.0659 C.ar    1  UNL1        0.0046
     15 C         142.3894  135.6857  156.8239 C.ar    1  UNL1        0.0547
     16 C         141.7005  136.8706  156.2146 C.ar    1  UNL1        0.0247
     17 C         143.1748  135.6446  158.4623 C.2     1  UNL1        0.2461
     18 O         143.7182  134.2549  158.6151 O.2     1  UNL1       -0.2701
     19 N         143.5936  136.2342  159.7764 N.am    1  UNL1       -0.2969
     20 C         143.7732  137.2351  160.8790 C.3     1  UNL1        0.1181
     21 C         143.6918  138.5270  161.6370 C.ar    1  UNL1        0.0166
     22 C         144.1938  138.9735  163.0247 C.ar    1  UNL1        0.0962
     23 N         144.1124  140.2654  163.7827 N.ar    1  UNL1       -0.2426
     24 C         143.4235  141.4503  163.1734 C.ar    1  UNL1        0.0988
     25 C         142.8160  141.3435  161.8062 C.ar    1  UNL1        0.0190
     26 C         143.3594  139.9538  161.9590 C.ar    1  UNL1        0.0005
     27 C         142.1271  142.5284  161.1969 C.ar    1  UNL1        0.0045
     28 C         142.5459  143.1180  162.5111 C.ar    1  UNL1        0.0207
     29 C         142.2134  144.5448  162.8330 C.ar    1  UNL1        0.0988
     30 N         141.4622  145.3822  161.8409 N.ar    1  UNL1       -0.2438
     31 C         141.0433  144.7926  160.5267 C.ar    1  UNL1        0.0813
     32 C         140.2014  145.5831  159.3082 C.ar    1  UNL1        0.0191
     33 C         139.7495  145.0647  157.9751 C.ar    1  UNL1        0.0016
     34 C         140.0452  143.6476  157.5820 C.ar    1  UNL1        0.0016
     35 C         140.6528  143.7545  158.9492 C.ar    1  UNL1        0.0015
     36 C         141.3758  143.3658  160.2046 C.ar    1  UNL1        0.0177
     37 H         139.4618  139.2684  153.1878 H       1  UNL1        0.1739
     38 H         144.0457  135.4564  160.1763 H       1  UNL1        0.1501
     39 C         137.0158  140.3570  151.9668 C.3     1  UNL1        0.2543
     40 O         138.3580  141.0132  152.1008 O.3     1  UNL1       -0.4553
@<TRIPOS>BOND
     1    39    40    1
     2    40     1    1
     3     1     2   ar
     4     2     3   ar
     5     3     4   ar
     6     4     5   ar
     7     5     6   ar
     8     6     7    1
     9     7     8    1
    10     8     9    2
    11     8    10    2
    12     8    11    1
    13    11    12   ar
    14    12    13   ar
    15    13    14   ar
    16    14    15   ar
    17    15    16   ar
    18    15    17    1
    19    17    18    2
    20    17    19   am
    21    19    20    1
    22    20    21    1
    23    21    22   ar
    24    22    23   ar
    25    23    24   ar
    26    24    25   ar
    27    25    26   ar
    28    25    27    1
    29    27    28   ar
    30    28    29   ar
    31    29    30   ar
    32    30    31   ar
    33    31    32   ar
    34    32    33   ar
    35    33    34   ar
    36    34    35   ar
    37    35    36   ar
    38     6     1   ar
    39    16    11   ar
    40    26    21   ar
    41    36    27   ar
    42    34     4    1
    43    36    31   ar
    44     7    37    1
    45    19    38    1
