@<TRIPOS>MOLECULE
*****
 29 32 0 0 0
SMALL
GASTEIGER

@<TRIPOS>ATOM
      1 C         139.0562  140.2353  161.1466 C.3     1  UNL1        0.1192
      2 C         137.7308  139.5330  161.1377 C.3     1  UNL1        0.1609
      3 O         137.6224  139.7564  159.6584 O.3     1  UNL1       -0.3507
      4 C         138.9478  140.4587  159.6674 C.3     1  UNL1        0.1609
      5 N         139.1646  140.0120  162.6260 N.3     1  UNL1       -0.2671
      6 C         137.9915  140.2986  163.5157 C.3     1  UNL1        0.0898
      7 C         138.1000  140.0752  164.9950 C.3     1  UNL1        0.0899
      8 N         139.3816  139.5652  165.5845 N.3     1  UNL1       -0.2665
      9 C         140.5547  139.2786  164.6948 C.3     1  UNL1        0.0899
     10 C         140.4462  139.5020  163.2155 C.3     1  UNL1        0.0898
     11 C         139.4900  139.3419  167.0639 C.3     1  UNL1        0.0992
     12 C         139.7680  140.4978  167.9785 C.ar    1  UNL1       -0.0061
     13 C         139.3672  140.4252  169.4221 C.ar    1  UNL1       -0.0029
     14 C         139.6452  141.5811  170.3368 C.ar    1  UNL1       -0.0003
     15 C         140.3241  142.8096  169.8078 C.ar    1  UNL1       -0.0000
     16 C         140.7250  142.8822  168.3642 C.ar    1  UNL1       -0.0003
     17 C         140.4469  141.7264  167.4495 C.ar    1  UNL1       -0.0029
     18 C         140.3815  140.9376  161.1556 C.3     1  UNL1        0.1177
     19 C         141.1365  143.1970  160.1185 C.2     1  UNL1        0.2294
     20 O         141.7824  142.4598  158.9829 O.2     1  UNL1       -0.2745
     21 N         140.4361  142.4359  161.2049 N.am    1  UNL1       -0.2571
     22 C         139.7903  143.1729  162.3405 C.ar    1  UNL1        0.0539
     23 C         140.5643  143.4414  163.5971 C.ar    1  UNL1        0.0149
     24 C         139.9185  144.1784  164.7327 C.ar    1  UNL1        0.0013
     25 C         138.4987  144.6471  164.6118 C.ar    1  UNL1        0.0001
     26 C         137.7248  144.3787  163.3553 C.ar    1  UNL1        0.0013
     27 C         138.3706  143.6416  162.2196 C.ar    1  UNL1        0.0149
     28 C         140.3606  145.5076  159.2191 C.3     1  UNL1        0.0101
     29 C         141.1912  144.6952  160.1678 C.3     1  UNL1        0.0856
@<TRIPOS>BOND
     1    28    29    1
     2    29    19    1
     3    19    20    2
     4    19    21   am
     5    21    18    1
     6    18     1    1
     7     1     5    1
     8     5     6    1
     9     6     7    1
    10     7     8    1
    11     8    11    1
    12    11    12    1
    13    12    13   ar
    14    13    14   ar
    15    14    15   ar
    16    15    16   ar
    17    16    17   ar
    18     8     9    1
    19     9    10    1
    20     1     2    1
    21     2     3    1
    22     3     4    1
    23    21    22    1
    24    22    23   ar
    25    23    24   ar
    26    24    25   ar
    27    25    26   ar
    28    26    27   ar
    29     4     1    1
    30    27    22   ar
    31    10     5    1
    32    17    12   ar
@<TRIPOS>MOLECULE
*****
 29 32 0 0 0
SMALL
GASTEIGER

@<TRIPOS>ATOM
      1 C         139.8012  144.1233  161.9178 C.3     1  UNL1        0.1192
      2 C         139.1040  145.1897  162.7093 C.3     1  UNL1        0.1609
      3 O         139.2920  146.1539  161.5758 O.3     1  UNL1       -0.3507
      4 C         139.9892  145.0875  160.7843 C.3     1  UNL1        0.1609
      5 N         139.6132  143.1590  163.0513 N.3     1  UNL1       -0.2671
      6 C         139.1626  141.7552  162.7749 C.3     1  UNL1        0.0898
      7 C         138.9746  140.7910  163.9084 C.3     1  UNL1        0.0899
      8 N         139.2372  141.2305  165.3184 N.3     1  UNL1       -0.2665
      9 C         139.6877  142.6343  165.5948 C.3     1  UNL1        0.0899
     10 C         139.8757  143.5985  164.4612 C.3     1  UNL1        0.0898
     11 C         139.0492  140.2662  166.4519 C.3     1  UNL1        0.0992
     12 C         140.1729  140.0085  167.4115 C.ar    1  UNL1       -0.0061
     13 C         139.9216  140.0519  168.8897 C.ar    1  UNL1       -0.0029
     14 C         141.0454  139.7941  169.8493 C.ar    1  UNL1       -0.0003
     15 C         142.4203  139.4930  169.3307 C.ar    1  UNL1       -0.0000
     16 C         142.6715  139.4496  167.8525 C.ar    1  UNL1       -0.0003
     17 C         141.5478  139.7073  166.8929 C.ar    1  UNL1       -0.0029
     18 C         140.4984  143.0568  161.1263 C.3     1  UNL1        0.1177
     19 C         142.7411  142.6974  159.8648 C.2     1  UNL1        0.2294
     20 O         141.9885  142.5059  158.5814 O.2     1  UNL1       -0.2745
     21 N         141.9961  142.9729  161.1372 N.am    1  UNL1       -0.2571
     22 C         142.7486  143.1645  162.4205 C.ar    1  UNL1        0.0539
     23 C         143.2011  144.5356  162.8271 C.ar    1  UNL1        0.0149
     24 C         143.9537  144.7272  164.1105 C.ar    1  UNL1        0.0013
     25 C         144.2538  143.5477  164.9872 C.ar    1  UNL1        0.0001
     26 C         143.8013  142.1766  164.5806 C.ar    1  UNL1        0.0013
     27 C         143.0487  141.9850  163.2973 C.ar    1  UNL1        0.0149
     28 C         144.9990  142.6081  158.5827 C.3     1  UNL1        0.0101
     29 C         144.2387  142.6135  159.8757 C.3     1  UNL1        0.0856
@<TRIPOS>BOND
     1    28    29    1
     2    29    19    1
     3    19    20    2
     4    19    21   am
     5    21    18    1
     6    18     1    1
     7     1     5    1
     8     5     6    1
     9     6     7    1
    10     7     8    1
    11     8    11    1
    12    11    12    1
    13    12    13   ar
    14    13    14   ar
    15    14    15   ar
    16    15    16   ar
    17    16    17   ar
    18     8     9    1
    19     9    10    1
    20     1     2    1
    21     2     3    1
    22     3     4    1
    23    21    22    1
    24    22    23   ar
    25    23    24   ar
    26    24    25   ar
    27    25    26   ar
    28    26    27   ar
    29     4     1    1
    30    27    22   ar
    31    10     5    1
    32    17    12   ar
@<TRIPOS>MOLECULE
*****
 29 32 0 0 0
SMALL
GASTEIGER

@<TRIPOS>ATOM
      1 C         139.7875  138.4057  163.1439 C.3     1  UNL1        0.1192
      2 C         141.0259  137.6107  163.4342 C.3     1  UNL1        0.1609
      3 O         141.0849  137.1785  161.9991 O.3     1  UNL1       -0.3507
      4 C         139.8465  137.9735  161.7088 C.3     1  UNL1        0.1609
      5 N         139.7285  138.8380  164.5791 N.3     1  UNL1       -0.2671
      6 C         138.4486  138.7061  165.3501 C.3     1  UNL1        0.0898
      7 C         138.3896  139.1384  166.7852 C.3     1  UNL1        0.0899
      8 N         139.6105  139.7025  167.4494 N.3     1  UNL1       -0.2665
      9 C         140.8904  139.8343  166.6784 C.3     1  UNL1        0.0899
     10 C         140.9494  139.4021  165.2433 C.3     1  UNL1        0.0898
     11 C         139.5515  140.1347  168.8846 C.3     1  UNL1        0.0992
     12 C         140.5309  141.1448  169.4045 C.ar    1  UNL1       -0.0061
     13 C         140.1895  142.6051  169.3744 C.ar    1  UNL1       -0.0029
     14 C         141.1690  143.6152  169.8944 C.ar    1  UNL1       -0.0003
     15 C         142.4899  143.1650  170.4445 C.ar    1  UNL1       -0.0000
     16 C         142.8313  141.7047  170.4746 C.ar    1  UNL1       -0.0003
     17 C         141.8518  140.6946  169.9547 C.ar    1  UNL1       -0.0029
     18 C         138.5491  139.2007  162.8536 C.3     1  UNL1        0.1177
     19 C         138.0939  140.9959  161.0315 C.2     1  UNL1        0.2294
     20 O         137.4114  139.9630  160.1844 O.2     1  UNL1       -0.2745
     21 N         138.6627  140.6148  162.3661 N.am    1  UNL1       -0.2571
     22 C         139.3452  141.6476  163.2131 C.ar    1  UNL1        0.0539
     23 C         138.6202  142.2656  164.3718 C.ar    1  UNL1        0.0149
     24 C         139.3027  143.2984  165.2188 C.ar    1  UNL1        0.0013
     25 C         140.7101  143.7133  164.9072 C.ar    1  UNL1        0.0001
     26 C         141.4350  143.0953  163.7486 C.ar    1  UNL1        0.0013
     27 C         140.7526  142.0624  162.9015 C.ar    1  UNL1        0.0149
     28 C         139.2543  142.7728  159.5329 C.3     1  UNL1        0.0101
     29 C         138.2074  142.4099  160.5439 C.3     1  UNL1        0.0856
@<TRIPOS>BOND
     1    28    29    1
     2    29    19    1
     3    19    20    2
     4    19    21   am
     5    21    18    1
     6    18     1    1
     7     1     5    1
     8     5     6    1
     9     6     7    1
    10     7     8    1
    11     8    11    1
    12    11    12    1
    13    12    13   ar
    14    13    14   ar
    15    14    15   ar
    16    15    16   ar
    17    16    17   ar
    18     8     9    1
    19     9    10    1
    20     1     2    1
    21     2     3    1
    22     3     4    1
    23    21    22    1
    24    22    23   ar
    25    23    24   ar
    26    24    25   ar
    27    25    26   ar
    28    26    27   ar
    29     4     1    1
    30    27    22   ar
    31    10     5    1
    32    17    12   ar
@<TRIPOS>MOLECULE
*****
 29 32 0 0 0
SMALL
GASTEIGER

@<TRIPOS>ATOM
      1 C         139.4622  139.5865  162.2782 C.3     1  UNL1        0.1192
      2 C         138.4494  138.6548  162.8749 C.3     1  UNL1        0.1609
      3 O         137.6140  138.7684  161.6344 O.3     1  UNL1       -0.3507
      4 C         138.6268  139.7001  161.0376 C.3     1  UNL1        0.1609
      5 N         140.2978  139.4729  163.5188 N.3     1  UNL1       -0.2671
      6 C         141.7666  139.1886  163.4103 C.3     1  UNL1        0.0898
      7 C         142.6020  139.0750  164.6509 C.3     1  UNL1        0.0899
      8 N         141.9687  139.2457  165.9999 N.3     1  UNL1       -0.2665
      9 C         140.5000  139.5300  166.1083 C.3     1  UNL1        0.0899
     10 C         139.6645  139.6436  164.8678 C.3     1  UNL1        0.0898
     11 C         142.8043  139.1322  167.2405 C.3     1  UNL1        0.0992
     12 C         142.5998  140.0940  168.3732 C.ar    1  UNL1       -0.0061
     13 C         142.8250  141.5617  168.1607 C.ar    1  UNL1       -0.0029
     14 C         142.6204  142.5236  169.2934 C.ar    1  UNL1       -0.0003
     15 C         142.1907  142.0178  170.6385 C.ar    1  UNL1       -0.0000
     16 C         141.9655  140.5501  170.8510 C.ar    1  UNL1       -0.0003
     17 C         142.1700  139.5882  169.7184 C.ar    1  UNL1       -0.0029
     18 C         140.4750  140.5181  161.6814 C.3     1  UNL1        0.1177
     19 C         140.3304  142.6554  160.2112 C.2     1  UNL1        0.2294
     20 O         140.8177  141.8739  159.0272 O.2     1  UNL1       -0.2745
     21 N         140.1590  141.9775  161.5383 N.am    1  UNL1       -0.2571
     22 C         139.6718  142.7590  162.7223 C.ar    1  UNL1        0.0539
     23 C         138.2122  143.0755  162.8630 C.ar    1  UNL1        0.0149
     24 C         137.7250  143.8569  164.0470 C.ar    1  UNL1        0.0013
     25 C         138.6972  144.3219  165.0903 C.ar    1  UNL1        0.0001
     26 C         140.1566  144.0055  164.9497 C.ar    1  UNL1        0.0013
     27 C         140.6440  143.2240  163.7657 C.ar    1  UNL1        0.0149
     28 C         141.0734  145.1416  160.3403 C.3     1  UNL1        0.0101
     29 C         140.0144  144.1147  160.0681 C.3     1  UNL1        0.0856
@<TRIPOS>BOND
     1    28    29    1
     2    29    19    1
     3    19    20    2
     4    19    21   am
     5    21    18    1
     6    18     1    1
     7     1     5    1
     8     5     6    1
     9     6     7    1
    10     7     8    1
    11     8    11    1
    12    11    12    1
    13    12    13   ar
    14    13    14   ar
    15    14    15   ar
    16    15    16   ar
    17    16    17   ar
    18     8     9    1
    19     9    10    1
    20     1     2    1
    21     2     3    1
    22     3     4    1
    23    21    22    1
    24    22    23   ar
    25    23    24   ar
    26    24    25   ar
    27    25    26   ar
    28    26    27   ar
    29     4     1    1
    30    27    22   ar
    31    10     5    1
    32    17    12   ar
@<TRIPOS>MOLECULE
*****
 29 32 0 0 0
SMALL
GASTEIGER

@<TRIPOS>ATOM
      1 C         139.9425  139.0360  162.5191 C.3     1  UNL1        0.1192
      2 C         138.7270  138.1573  162.4964 C.3     1  UNL1        0.1609
      3 O         138.9078  137.9453  161.0225 O.3     1  UNL1       -0.3507
      4 C         140.1232  138.8240  161.0452 C.3     1  UNL1        0.1609
      5 N         139.7618  139.2479  163.9930 N.3     1  UNL1       -0.2671
      6 C         140.9472  139.1889  164.9101 C.3     1  UNL1        0.0898
      7 C         140.7665  139.4009  166.3840 C.3     1  UNL1        0.0899
      8 N         139.4003  139.6719  166.9408 N.3     1  UNL1       -0.2665
      9 C         138.2148  139.7309  166.0237 C.3     1  UNL1        0.0899
     10 C         138.3955  139.5189  164.5498 C.3     1  UNL1        0.0898
     11 C         139.2196  139.8839  168.4148 C.3     1  UNL1        0.0992
     12 C         140.2024  140.7213  169.1781 C.ar    1  UNL1       -0.0061
     13 C         140.3983  142.1639  168.8170 C.ar    1  UNL1       -0.0029
     14 C         141.3812  143.0014  169.5804 C.ar    1  UNL1       -0.0003
     15 C         142.1681  142.3961  170.7048 C.ar    1  UNL1       -0.0000
     16 C         141.9723  140.9535  171.0659 C.ar    1  UNL1       -0.0003
     17 C         140.9894  140.1160  170.3026 C.ar    1  UNL1       -0.0029
     18 C         141.1579  139.9147  162.5418 C.3     1  UNL1        0.1177
     19 C         141.9191  142.0269  161.2344 C.2     1  UNL1        0.2294
     20 O         142.9388  141.2060  160.5020 O.2     1  UNL1       -0.2745
     21 N         141.0286  141.3812  162.2543 N.am    1  UNL1       -0.2571
     22 C         140.0089  142.2020  162.9867 C.ar    1  UNL1        0.0539
     23 C         140.3186  142.7383  164.3530 C.ar    1  UNL1        0.0149
     24 C         139.2990  143.5591  165.0854 C.ar    1  UNL1        0.0013
     25 C         137.9695  143.8437  164.4516 C.ar    1  UNL1        0.0001
     26 C         137.6598  143.3075  163.0854 C.ar    1  UNL1        0.0013
     27 C         138.6795  142.4867  162.3529 C.ar    1  UNL1        0.0149
     28 C         142.4475  144.4953  161.8489 C.3     1  UNL1        0.0101
     29 C         141.7898  143.4934  160.9469 C.3     1  UNL1        0.0856
@<TRIPOS>BOND
     1    28    29    1
     2    29    19    1
     3    19    20    2
     4    19    21   am
     5    21    18    1
     6    18     1    1
     7     1     5    1
     8     5     6    1
     9     6     7    1
    10     7     8    1
    11     8    11    1
    12    11    12    1
    13    12    13   ar
    14    13    14   ar
    15    14    15   ar
    16    15    16   ar
    17    16    17   ar
    18     8     9    1
    19     9    10    1
    20     1     2    1
    21     2     3    1
    22     3     4    1
    23    21    22    1
    24    22    23   ar
    25    23    24   ar
    26    24    25   ar
    27    25    26   ar
    28    26    27   ar
    29     4     1    1
    30    27    22   ar
    31    10     5    1
    32    17    12   ar
@<TRIPOS>MOLECULE
*****
 29 32 0 0 0
SMALL
GASTEIGER

@<TRIPOS>ATOM
      1 C         139.2825  139.2883  162.3626 C.3     1  UNL1        0.1192
      2 C         138.5365  138.0948  162.8811 C.3     1  UNL1        0.1609
      3 O         137.6486  138.1248  161.6726 O.3     1  UNL1       -0.3507
      4 C         138.3946  139.3183  161.1541 C.3     1  UNL1        0.1609
      5 N         140.1706  139.2584  163.5712 N.3     1  UNL1       -0.2671
      6 C         139.5908  139.4965  164.9339 C.3     1  UNL1        0.0898
      7 C         140.4788  139.4666  166.1424 C.3     1  UNL1        0.0899
      8 N         141.9466  139.1985  165.9882 N.3     1  UNL1       -0.2665
      9 C         142.5264  138.9604  164.6254 C.3     1  UNL1        0.0899
     10 C         141.6383  138.9903  163.4169 C.3     1  UNL1        0.0898
     11 C         142.8346  139.1686  167.1967 C.3     1  UNL1        0.0992
     12 C         142.6042  140.1347  168.3208 C.ar    1  UNL1       -0.0061
     13 C         142.8420  141.6007  168.1104 C.ar    1  UNL1       -0.0029
     14 C         142.6116  142.5668  169.2345 C.ar    1  UNL1       -0.0003
     15 C         142.1435  142.0669  170.5690 C.ar    1  UNL1       -0.0000
     16 C         141.9057  140.6009  170.7794 C.ar    1  UNL1       -0.0003
     17 C         142.1360  139.6348  169.6554 C.ar    1  UNL1       -0.0029
     18 C         140.0286  140.4818  161.8441 C.3     1  UNL1        0.1177
     19 C         138.4521  142.3681  162.6847 C.2     1  UNL1        0.2294
     20 O         137.2615  141.5703  162.2419 O.2     1  UNL1       -0.2745
     21 N         139.8356  141.8239  162.4858 N.am    1  UNL1       -0.2571
     22 C         141.0262  142.6216  162.9286 C.ar    1  UNL1        0.0539
     23 C         141.7591  143.4843  161.9443 C.ar    1  UNL1        0.0149
     24 C         142.9497  144.2821  162.3871 C.ar    1  UNL1        0.0013
     25 C         143.4075  144.2171  163.8141 C.ar    1  UNL1        0.0001
     26 C         142.6746  143.3544  164.7983 C.ar    1  UNL1        0.0013
     27 C         141.4840  142.5566  164.3555 C.ar    1  UNL1        0.0149
     28 C         137.9478  143.8034  164.7908 C.3     1  UNL1        0.0101
     29 C         138.2591  143.7101  163.3264 C.3     1  UNL1        0.0856
@<TRIPOS>BOND
     1    28    29    1
     2    29    19    1
     3    19    20    2
     4    19    21   am
     5    21    18    1
     6    18     1    1
     7     1     5    1
     8     5     6    1
     9     6     7    1
    10     7     8    1
    11     8    11    1
    12    11    12    1
    13    12    13   ar
    14    13    14   ar
    15    14    15   ar
    16    15    16   ar
    17    16    17   ar
    18     8     9    1
    19     9    10    1
    20     1     2    1
    21     2     3    1
    22     3     4    1
    23    21    22    1
    24    22    23   ar
    25    23    24   ar
    26    24    25   ar
    27    25    26   ar
    28    26    27   ar
    29     4     1    1
    30    27    22   ar
    31    10     5    1
    32    17    12   ar
@<TRIPOS>MOLECULE
*****
 29 32 0 0 0
SMALL
GASTEIGER

@<TRIPOS>ATOM
      1 C         141.4543  140.5911  168.1105 C.3     1  UNL1        0.1192
      2 C         142.3277  139.5293  168.7103 C.3     1  UNL1        0.1609
      3 O         141.3744  139.3950  169.8605 O.3     1  UNL1       -0.3507
      4 C         140.5010  140.4567  169.2607 C.3     1  UNL1        0.1609
      5 N         142.4076  140.7255  166.9601 N.3     1  UNL1       -0.2671
      6 C         142.9297  139.4994  166.2715 C.3     1  UNL1        0.0898
      7 C         143.8829  139.6339  165.1212 C.3     1  UNL1        0.0899
      8 N         144.3141  140.9944  164.6596 N.3     1  UNL1       -0.2665
      9 C         143.7921  142.2204  165.3482 C.3     1  UNL1        0.0899
     10 C         142.8388  142.0860  166.4985 C.3     1  UNL1        0.0898
     11 C         145.2675  141.1288  163.5092 C.3     1  UNL1        0.0992
     12 C         144.7452  141.1757  162.1039 C.ar    1  UNL1       -0.0061
     13 C         144.7356  142.4726  161.3502 C.ar    1  UNL1       -0.0029
     14 C         144.2133  142.5195  159.9448 C.ar    1  UNL1       -0.0003
     15 C         143.7006  141.2695  159.2932 C.ar    1  UNL1       -0.0000
     16 C         143.7102  139.9726  160.0469 C.ar    1  UNL1       -0.0003
     17 C         144.2324  139.9257  161.4522 C.ar    1  UNL1       -0.0029
     18 C         140.5809  141.6528  167.5106 C.3     1  UNL1        0.1177
     19 C         139.1860  142.3757  165.4414 C.2     1  UNL1        0.2294
     20 O         139.6665  143.7867  165.6105 O.2     1  UNL1       -0.2745
     21 N         139.6432  141.3088  166.3915 N.am    1  UNL1       -0.2571
     22 C         139.1628  139.8980  166.2224 C.ar    1  UNL1        0.0539
     23 C         138.0599  139.3718  167.0925 C.ar    1  UNL1        0.0149
     24 C         137.5795  137.9610  166.9234 C.ar    1  UNL1        0.0013
     25 C         138.2019  137.0762  165.8843 C.ar    1  UNL1        0.0001
     26 C         139.3047  137.6022  165.0142 C.ar    1  UNL1        0.0013
     27 C         139.7852  139.0132  165.1833 C.ar    1  UNL1        0.0149
     28 C         137.8067  143.0947  163.3604 C.3     1  UNL1        0.0101
     29 C         138.2484  142.0318  164.3222 C.3     1  UNL1        0.0856
@<TRIPOS>BOND
     1    28    29    1
     2    29    19    1
     3    19    20    2
     4    19    21   am
     5    21    18    1
     6    18     1    1
     7     1     5    1
     8     5     6    1
     9     6     7    1
    10     7     8    1
    11     8    11    1
    12    11    12    1
    13    12    13   ar
    14    13    14   ar
    15    14    15   ar
    16    15    16   ar
    17    16    17   ar
    18     8     9    1
    19     9    10    1
    20     1     2    1
    21     2     3    1
    22     3     4    1
    23    21    22    1
    24    22    23   ar
    25    23    24   ar
    26    24    25   ar
    27    25    26   ar
    28    26    27   ar
    29     4     1    1
    30    27    22   ar
    31    10     5    1
    32    17    12   ar
@<TRIPOS>MOLECULE
*****
 29 32 0 0 0
SMALL
GASTEIGER

@<TRIPOS>ATOM
      1 C         138.8597  139.2086  160.8637 C.3     1  UNL1        0.1192
      2 C         137.5180  139.8687  160.7458 C.3     1  UNL1        0.1609
      3 O         137.6663  139.9036  159.2536 O.3     1  UNL1       -0.3507
      4 C         139.0080  139.2434  159.3715 C.3     1  UNL1        0.1609
      5 N         138.7115  139.1737  162.3560 N.3     1  UNL1       -0.2671
      6 C         138.2593  140.3989  163.0936 C.3     1  UNL1        0.0898
      7 C         138.1110  140.3640  164.5859 C.3     1  UNL1        0.0899
      8 N         138.4150  139.1038  165.3405 N.3     1  UNL1       -0.2665
      9 C         138.8672  137.8785  164.6028 C.3     1  UNL1        0.0899
     10 C         139.0154  137.9134  163.1106 C.3     1  UNL1        0.0898
     11 C         138.2667  139.0688  166.8328 C.3     1  UNL1        0.0992
     12 C         139.3105  139.7008  167.7051 C.ar    1  UNL1       -0.0061
     13 C         140.6884  139.9486  167.1666 C.ar    1  UNL1       -0.0029
     14 C         141.7322  140.5806  168.0391 C.ar    1  UNL1       -0.0003
     15 C         141.3981  140.9649  169.4499 C.ar    1  UNL1       -0.0000
     16 C         140.0202  140.7172  169.9885 C.ar    1  UNL1       -0.0003
     17 C         138.9764  140.0852  169.1161 C.ar    1  UNL1       -0.0029
     18 C         140.2014  138.5484  160.9816 C.3     1  UNL1        0.1177
     19 C         142.5356  139.0189  159.9423 C.2     1  UNL1        0.2294
     20 O         142.3687  137.8377  159.0328 O.2     1  UNL1       -0.2745
     21 N         141.4520  139.3742  160.9167 N.am    1  UNL1       -0.2571
     22 C         141.6189  140.5553  161.8262 C.ar    1  UNL1        0.0539
     23 C         141.2794  141.9322  161.3373 C.ar    1  UNL1        0.0149
     24 C         141.4463  143.1133  162.2467 C.ar    1  UNL1        0.0013
     25 C         141.9526  142.9176  163.6451 C.ar    1  UNL1        0.0001
     26 C         142.2921  141.5407  164.1339 C.ar    1  UNL1        0.0013
     27 C         142.1252  140.3595  163.2245 C.ar    1  UNL1        0.0149
     28 C         143.9197  140.9235  158.8438 C.3     1  UNL1        0.0101
     29 C         143.7862  139.8447  159.8773 C.3     1  UNL1        0.0856
@<TRIPOS>BOND
     1    28    29    1
     2    29    19    1
     3    19    20    2
     4    19    21   am
     5    21    18    1
     6    18     1    1
     7     1     5    1
     8     5     6    1
     9     6     7    1
    10     7     8    1
    11     8    11    1
    12    11    12    1
    13    12    13   ar
    14    13    14   ar
    15    14    15   ar
    16    15    16   ar
    17    16    17   ar
    18     8     9    1
    19     9    10    1
    20     1     2    1
    21     2     3    1
    22     3     4    1
    23    21    22    1
    24    22    23   ar
    25    23    24   ar
    26    24    25   ar
    27    25    26   ar
    28    26    27   ar
    29     4     1    1
    30    27    22   ar
    31    10     5    1
    32    17    12   ar
@<TRIPOS>MOLECULE
*****
 29 32 0 0 0
SMALL
GASTEIGER

@<TRIPOS>ATOM
      1 C         141.7548  140.7269  167.6829 C.3     1  UNL1        0.1192
      2 C         142.5201  139.4974  168.0736 C.3     1  UNL1        0.1609
      3 O         143.1566  140.2524  169.2026 O.3     1  UNL1       -0.3507
      4 C         142.3913  141.4819  168.8119 C.3     1  UNL1        0.1609
      5 N         141.1183  139.9719  166.5537 N.3     1  UNL1       -0.2671
      6 C         141.9601  139.4705  165.4181 C.3     1  UNL1        0.0898
      7 C         141.3236  138.7155  164.2890 C.3     1  UNL1        0.0899
      8 N         139.8452  138.4620  164.2956 N.3     1  UNL1       -0.2665
      9 C         139.0033  138.9635  165.4312 C.3     1  UNL1        0.0899
     10 C         139.6399  139.7184  166.5603 C.3     1  UNL1        0.0898
     11 C         139.2087  137.7070  163.1664 C.3     1  UNL1        0.0992
     12 C         138.9630  138.3885  161.8530 C.ar    1  UNL1       -0.0061
     13 C         139.9695  138.2707  160.7471 C.ar    1  UNL1       -0.0029
     14 C         139.7238  138.9522  159.4336 C.ar    1  UNL1       -0.0003
     15 C         138.4715  139.7514  159.2260 C.ar    1  UNL1       -0.0000
     16 C         137.4650  139.8691  160.3318 C.ar    1  UNL1       -0.0003
     17 C         137.7107  139.1877  161.6453 C.ar    1  UNL1       -0.0029
     18 C         140.9895  141.9564  167.2921 C.3     1  UNL1        0.1177
     19 C         142.6455  142.9377  165.5472 C.2     1  UNL1        0.2294
     20 O         143.7942  142.6167  166.4569 O.2     1  UNL1       -0.2745
     21 N         141.2432  142.6075  165.9648 N.am    1  UNL1       -0.2571
     22 C         140.0945  142.9283  165.0551 C.ar    1  UNL1        0.0539
     23 C         139.8749  142.1202  163.8106 C.ar    1  UNL1        0.0149
     24 C         138.7262  142.4411  162.9009 C.ar    1  UNL1        0.0013
     25 C         137.7971  143.5701  163.2357 C.ar    1  UNL1        0.0001
     26 C         138.0166  144.3782  164.4802 C.ar    1  UNL1        0.0013
     27 C         139.1653  144.0573  165.3899 C.ar    1  UNL1        0.0149
     28 C         143.6817  144.8665  164.1486 C.3     1  UNL1        0.0101
     29 C         142.8992  143.5887  164.2199 C.3     1  UNL1        0.0856
@<TRIPOS>BOND
     1    28    29    1
     2    29    19    1
     3    19    20    2
     4    19    21   am
     5    21    18    1
     6    18     1    1
     7     1     5    1
     8     5     6    1
     9     6     7    1
    10     7     8    1
    11     8    11    1
    12    11    12    1
    13    12    13   ar
    14    13    14   ar
    15    14    15   ar
    16    15    16   ar
    17    16    17   ar
    18     8     9    1
    19     9    10    1
    20     1     2    1
    21     2     3    1
    22     3     4    1
    23    21    22    1
    24    22    23   ar
    25    23    24   ar
    26    24    25   ar
    27    25    26   ar
    28    26    27   ar
    29     4     1    1
    30    27    22   ar
    31    10     5    1
    32    17    12   ar
