@<TRIPOS>MOLECULE
*****
 29 32 0 0 0
SMALL
GASTEIGER

@<TRIPOS>ATOM
      1 C         140.9657  138.5389  164.5101 C.ar    1  UNL1        0.0845
      2 C         141.0697  137.0850  164.1560 C.ar    1  UNL1        0.1180
      3 N         141.0180  136.9672  162.6615 N.ar    1  UNL1       -0.2249
      4 C         140.8819  138.3482  162.0920 C.ar    1  UNL1        0.1478
      5 C         140.7833  138.8467  160.6807 C.ar    1  UNL1        0.0374
      6 C         140.6524  140.3165  160.4120 C.ar    1  UNL1        0.0046
      7 C         140.6200  141.2879  161.5545 C.ar    1  UNL1        0.0177
      8 C         140.7187  140.7894  162.9658 C.ar    1  UNL1        0.0814
      9 N         140.8496  139.3196  163.2345 N.ar    1  UNL1       -0.2888
     10 C         140.9963  140.2570  168.6692 C.ar    1  UNL1        0.1057
     11 C         142.2868  139.8811  168.0034 C.ar    1  UNL1        0.0184
     12 C         142.2766  139.3084  166.6171 C.ar    1  UNL1        0.0028
     13 C         140.9759  139.1116  165.8964 C.ar    1  UNL1        0.0178
     14 C         139.6853  139.4874  166.5622 C.ar    1  UNL1        0.0028
     15 C         139.6955  140.0601  167.9486 C.ar    1  UNL1        0.0184
     16 C         141.0168  141.4024  171.4417 C.3     1  UNL1        0.1816
     17 S         141.0065  140.8297  170.0555 S.O2    1  UNL1        0.0104
     18 O         141.9999  141.8659  169.6200 O.2     1  UNL1       -0.1686
     19 O         140.0132  139.7934  170.4909 O.2     1  UNL1       -0.1686
     20 C         140.4891  142.7579  161.2857 C.ar    1  UNL1        0.0027
     21 C         139.8410  143.6513  162.3015 C.ar    1  UNL1        0.0001
     22 C         139.7101  145.1212  162.0326 C.ar    1  UNL1        0.0013
     23 C         140.2272  145.6977  160.7480 C.ar    1  UNL1        0.0183
     24 C         140.8754  144.8042  159.7323 C.ar    1  UNL1        0.1057
     25 C         141.0063  143.3344  160.0011 C.ar    1  UNL1        0.0184
     26 S         141.3925  145.3807  158.4477 S.O2    1  UNL1        0.0104
     27 C         141.9097  145.9572  157.1631 C.3     1  UNL1        0.1816
     28 O         140.0872  146.0901  158.2405 O.2     1  UNL1       -0.1686
     29 O         142.6978  144.6713  158.6548 O.2     1  UNL1       -0.1686
@<TRIPOS>BOND
     1    16    17    1
     2    17    18    2
     3    17    19    2
     4    17    10    1
     5    10    11   ar
     6    11    12   ar
     7    12    13   ar
     8    13     1    1
     9     1     2   ar
    10     2     3   ar
    11     3     4   ar
    12     4     5   ar
    13     5     6   ar
    14     6     7   ar
    15     7    20    1
    16    20    21   ar
    17    21    22   ar
    18    22    23   ar
    19    23    24   ar
    20    24    26    1
    21    26    27    1
    22    26    28    2
    23    26    29    2
    24    24    25   ar
    25     7     8   ar
    26     8     9   ar
    27    13    14   ar
    28    14    15   ar
    29    15    10   ar
    30     9     1   ar
    31     9     4   ar
    32    25    20   ar
@<TRIPOS>MOLECULE
*****
 29 32 0 0 0
SMALL
GASTEIGER

@<TRIPOS>ATOM
      1 C         140.8483  144.2800  161.0926 C.ar    1  UNL1        0.0845
      2 C         140.0173  145.4824  160.7557 C.ar    1  UNL1        0.1180
      3 N         139.2693  145.8895  161.9905 N.ar    1  UNL1       -0.2249
      4 C         139.6380  144.9386  163.0905 C.ar    1  UNL1        0.1478
      5 C         139.2111  144.8500  164.5257 C.ar    1  UNL1        0.0374
      6 C         139.7602  143.7667  165.4059 C.ar    1  UNL1        0.0046
      7 C         140.7361  142.7719  164.8509 C.ar    1  UNL1        0.0177
      8 C         141.1630  142.8605  163.4157 C.ar    1  UNL1        0.0814
      9 N         140.6139  143.9438  162.5355 N.ar    1  UNL1       -0.2888
     10 C         143.5676  142.0690  158.2698 C.ar    1  UNL1        0.1057
     11 C         142.1404  142.3283  157.8877 C.ar    1  UNL1        0.0184
     12 C         141.2341  143.0653  158.8286 C.ar    1  UNL1        0.0028
     13 C         141.7547  143.5430  160.1516 C.ar    1  UNL1        0.0178
     14 C         143.1819  143.2837  160.5338 C.ar    1  UNL1        0.0028
     15 C         144.0883  142.5467  159.5929 C.ar    1  UNL1        0.0184
     16 C         145.3803  140.5951  156.3879 C.3     1  UNL1        0.1816
     17 S         144.4739  141.3320  157.3289 S.O2    1  UNL1        0.0104
     18 O         144.5690  142.5537  156.4637 O.2     1  UNL1       -0.1686
     19 O         144.3788  140.1104  158.1941 O.2     1  UNL1       -0.1686
     20 C         141.2852  141.6886  165.7313 C.ar    1  UNL1        0.0027
     21 C         142.3983  140.8128  165.2372 C.ar    1  UNL1        0.0001
     22 C         142.9474  139.7294  166.1175 C.ar    1  UNL1        0.0013
     23 C         142.3834  139.5219  167.4919 C.ar    1  UNL1        0.0183
     24 C         141.2703  140.3977  167.9859 C.ar    1  UNL1        0.1057
     25 C         140.7212  141.4810  167.1056 C.ar    1  UNL1        0.0184
     26 S         140.7063  140.1902  169.3603 S.O2    1  UNL1        0.0104
     27 C         140.1423  139.9827  170.7346 C.3     1  UNL1        0.1816
     28 O         139.4032  139.7531  168.7595 O.2     1  UNL1       -0.1686
     29 O         142.0094  140.6273  169.9610 O.2     1  UNL1       -0.1686
@<TRIPOS>BOND
     1    16    17    1
     2    17    18    2
     3    17    19    2
     4    17    10    1
     5    10    11   ar
     6    11    12   ar
     7    12    13   ar
     8    13     1    1
     9     1     2   ar
    10     2     3   ar
    11     3     4   ar
    12     4     5   ar
    13     5     6   ar
    14     6     7   ar
    15     7    20    1
    16    20    21   ar
    17    21    22   ar
    18    22    23   ar
    19    23    24   ar
    20    24    26    1
    21    26    27    1
    22    26    28    2
    23    26    29    2
    24    24    25   ar
    25     7     8   ar
    26     8     9   ar
    27    13    14   ar
    28    14    15   ar
    29    15    10   ar
    30     9     1   ar
    31     9     4   ar
    32    25    20   ar
@<TRIPOS>MOLECULE
*****
 29 32 0 0 0
SMALL
GASTEIGER

@<TRIPOS>ATOM
      1 C         140.8818  143.4016  160.8589 C.ar    1  UNL1        0.0845
      2 C         140.9408  144.8337  160.4167 C.ar    1  UNL1        0.1180
      3 N         140.4254  145.6866  161.5378 N.ar    1  UNL1       -0.2249
      4 C         140.0479  144.7816  162.6729 C.ar    1  UNL1        0.1478
      5 C         139.4838  145.0611  164.0344 C.ar    1  UNL1        0.0374
      6 C         139.2017  143.9283  164.9763 C.ar    1  UNL1        0.0046
      7 C         139.4837  142.5161  164.5567 C.ar    1  UNL1        0.0177
      8 C         140.0479  142.2366  163.1953 C.ar    1  UNL1        0.0814
      9 N         140.3300  143.3694  162.2534 N.ar    1  UNL1       -0.2888
     10 C         142.1394  139.8289  158.4290 C.ar    1  UNL1        0.1057
     11 C         143.1464  140.5562  159.2698 C.ar    1  UNL1        0.0184
     12 C         142.7271  141.7471  160.0797 C.ar    1  UNL1        0.0028
     13 C         141.3010  142.2107  160.0490 C.ar    1  UNL1        0.0178
     14 C         140.2939  141.4833  159.2081 C.ar    1  UNL1        0.0028
     15 C         140.7131  140.2925  158.3982 C.ar    1  UNL1        0.0184
     16 C         142.9779  137.4472  156.8091 C.3     1  UNL1        0.1816
     17 S         142.5586  138.6380  157.6190 S.O2    1  UNL1        0.0104
     18 O         143.9199  139.2411  157.4370 O.2     1  UNL1       -0.1686
     19 O         141.1973  138.0349  157.8011 O.2     1  UNL1       -0.1686
     20 C         139.2016  141.3833  165.4987 C.ar    1  UNL1        0.0027
     21 C         138.2706  140.2810  165.0886 C.ar    1  UNL1        0.0001
     22 C         137.9885  139.1482  166.0306 C.ar    1  UNL1        0.0013
     23 C         138.6374  139.1177  167.3826 C.ar    1  UNL1        0.0183
     24 C         139.5685  140.2201  167.7927 C.ar    1  UNL1        0.1057
     25 C         139.8505  141.3528  166.8507 C.ar    1  UNL1        0.0184
     26 S         140.2174  140.1896  169.1447 S.O2    1  UNL1        0.0104
     27 C         140.8663  140.1592  170.4967 C.3     1  UNL1        0.1816
     28 O         141.5375  140.5297  168.5188 O.2     1  UNL1       -0.1686
     29 O         138.8973  139.8496  169.7706 O.2     1  UNL1       -0.1686
@<TRIPOS>BOND
     1    16    17    1
     2    17    18    2
     3    17    19    2
     4    17    10    1
     5    10    11   ar
     6    11    12   ar
     7    12    13   ar
     8    13     1    1
     9     1     2   ar
    10     2     3   ar
    11     3     4   ar
    12     4     5   ar
    13     5     6   ar
    14     6     7   ar
    15     7    20    1
    16    20    21   ar
    17    21    22   ar
    18    22    23   ar
    19    23    24   ar
    20    24    26    1
    21    26    27    1
    22    26    28    2
    23    26    29    2
    24    24    25   ar
    25     7     8   ar
    26     8     9   ar
    27    13    14   ar
    28    14    15   ar
    29    15    10   ar
    30     9     1   ar
    31     9     4   ar
    32    25    20   ar
@<TRIPOS>MOLECULE
*****
 29 32 0 0 0
SMALL
GASTEIGER

@<TRIPOS>ATOM
      1 C         142.3889  138.6559  158.4769 C.ar    1  UNL1        0.0845
      2 C         142.6846  139.9896  157.8574 C.ar    1  UNL1        0.1180
      3 N         143.3706  139.7493  156.5452 N.ar    1  UNL1       -0.2249
      4 C         143.4988  138.2671  156.3538 C.ar    1  UNL1        0.1478
      5 C         144.0896  137.4454  155.2467 C.ar    1  UNL1        0.0374
      6 C         144.0738  135.9481  155.3334 C.ar    1  UNL1        0.0046
      7 C         143.4671  135.2723  156.5272 C.ar    1  UNL1        0.0177
      8 C         142.8762  136.0939  157.6344 C.ar    1  UNL1        0.0814
      9 N         142.8921  137.5913  157.5476 N.ar    1  UNL1       -0.2888
     10 C         140.3502  137.9690  162.4294 C.ar    1  UNL1        0.1057
     11 C         139.5418  138.3496  161.2246 C.ar    1  UNL1        0.0184
     12 C         140.2214  138.5786  159.9071 C.ar    1  UNL1        0.0028
     13 C         141.7093  138.4270  159.7944 C.ar    1  UNL1        0.0178
     14 C         142.5179  138.0463  160.9992 C.ar    1  UNL1        0.0028
     15 C         141.8383  137.8173  162.3167 C.ar    1  UNL1        0.0184
     16 C         138.9912  137.5111  165.0644 C.3     1  UNL1        0.1816
     17 S         139.6706  137.7401  163.7469 S.O2    1  UNL1        0.0104
     18 O         141.0050  137.7220  164.4319 O.2     1  UNL1       -0.1686
     19 O         138.3364  137.7582  163.0618 O.2     1  UNL1       -0.1686
     20 C         143.4512  133.7749  156.6139 C.ar    1  UNL1        0.0027
     21 C         144.4543  133.0626  157.4721 C.ar    1  UNL1        0.0001
     22 C         144.4384  131.5652  157.5588 C.ar    1  UNL1        0.0013
     23 C         143.4195  130.7800  156.7872 C.ar    1  UNL1        0.0183
     24 C         142.4164  131.4923  155.9289 C.ar    1  UNL1        0.1057
     25 C         142.4323  132.9897  155.8423 C.ar    1  UNL1        0.0184
     26 S         141.3975  130.7072  155.1574 S.O2    1  UNL1        0.0104
     27 C         140.3785  129.9221  154.3858 C.3     1  UNL1        0.1816
     28 O         141.9328  129.4351  155.7449 O.2     1  UNL1       -0.1686
     29 O         140.8621  131.9793  154.5699 O.2     1  UNL1       -0.1686
@<TRIPOS>BOND
     1    16    17    1
     2    17    18    2
     3    17    19    2
     4    17    10    1
     5    10    11   ar
     6    11    12   ar
     7    12    13   ar
     8    13     1    1
     9     1     2   ar
    10     2     3   ar
    11     3     4   ar
    12     4     5   ar
    13     5     6   ar
    14     6     7   ar
    15     7    20    1
    16    20    21   ar
    17    21    22   ar
    18    22    23   ar
    19    23    24   ar
    20    24    26    1
    21    26    27    1
    22    26    28    2
    23    26    29    2
    24    24    25   ar
    25     7     8   ar
    26     8     9   ar
    27    13    14   ar
    28    14    15   ar
    29    15    10   ar
    30     9     1   ar
    31     9     4   ar
    32    25    20   ar
@<TRIPOS>MOLECULE
*****
 29 32 0 0 0
SMALL
GASTEIGER

@<TRIPOS>ATOM
      1 C         143.0940  140.4585  165.3820 C.ar    1  UNL1        0.0845
      2 C         144.0288  139.2854  165.3781 C.ar    1  UNL1        0.1180
      3 N         144.5618  139.1221  163.9856 N.ar    1  UNL1       -0.2249
      4 C         143.9564  140.1943  163.1288 C.ar    1  UNL1        0.1478
      5 C         144.1140  140.5252  161.6743 C.ar    1  UNL1        0.0374
      6 C         143.3645  141.6821  161.0829 C.ar    1  UNL1        0.0046
      7 C         142.4573  142.5080  161.9460 C.ar    1  UNL1        0.0177
      8 C         142.2997  142.1771  163.4005 C.ar    1  UNL1        0.0814
      9 N         143.0493  141.0202  163.9919 N.ar    1  UNL1       -0.2888
     10 C         140.8226  142.0188  168.9396 C.ar    1  UNL1        0.1057
     11 C         140.2115  140.9669  168.0621 C.ar    1  UNL1        0.0184
     12 C         140.9687  140.4468  166.8763 C.ar    1  UNL1        0.0028
     13 C         142.3368  140.9786  166.5679 C.ar    1  UNL1        0.0178
     14 C         142.9480  142.0306  167.4454 C.ar    1  UNL1        0.0028
     15 C         142.1908  142.5507  168.6313 C.ar    1  UNL1        0.0184
     16 C         139.3082  143.0589  171.3113 C.3     1  UNL1        0.1816
     17 S         140.0654  142.5389  170.1255 S.O2    1  UNL1        0.0104
     18 O         139.2301  141.2931  170.1384 O.2     1  UNL1       -0.1686
     19 O         140.9008  143.7847  170.1125 O.2     1  UNL1       -0.1686
     20 C         141.7078  143.6649  161.3545 C.ar    1  UNL1        0.0027
     21 C         140.8282  144.5126  162.2250 C.ar    1  UNL1        0.0001
     22 C         140.0787  145.6695  161.6335 C.ar    1  UNL1        0.0013
     23 C         140.2087  145.9787  160.1715 C.ar    1  UNL1        0.0183
     24 C         141.0883  145.1310  159.3010 C.ar    1  UNL1        0.1057
     25 C         141.8378  143.9741  159.8925 C.ar    1  UNL1        0.0184
     26 S         141.2183  145.4402  157.8390 S.O2    1  UNL1        0.0104
     27 C         141.3483  145.7493  156.3770 C.3     1  UNL1        0.1816
     28 O         139.9389  144.7050  157.5697 O.2     1  UNL1       -0.1686
     29 O         142.4978  146.1753  158.1083 O.2     1  UNL1       -0.1686
@<TRIPOS>BOND
     1    16    17    1
     2    17    18    2
     3    17    19    2
     4    17    10    1
     5    10    11   ar
     6    11    12   ar
     7    12    13   ar
     8    13     1    1
     9     1     2   ar
    10     2     3   ar
    11     3     4   ar
    12     4     5   ar
    13     5     6   ar
    14     6     7   ar
    15     7    20    1
    16    20    21   ar
    17    21    22   ar
    18    22    23   ar
    19    23    24   ar
    20    24    26    1
    21    26    27    1
    22    26    28    2
    23    26    29    2
    24    24    25   ar
    25     7     8   ar
    26     8     9   ar
    27    13    14   ar
    28    14    15   ar
    29    15    10   ar
    30     9     1   ar
    31     9     4   ar
    32    25    20   ar
@<TRIPOS>MOLECULE
*****
 29 32 0 0 0
SMALL
GASTEIGER

@<TRIPOS>ATOM
      1 C         141.0169  137.1436  155.3344 C.ar    1  UNL1        0.0845
      2 C         140.9834  137.6603  153.9266 C.ar    1  UNL1        0.1180
      3 N         140.2318  138.9584  153.9271 N.ar    1  UNL1       -0.2249
      4 C         139.8008  139.2440  155.3352 C.ar    1  UNL1        0.1478
      5 C         139.0291  140.3804  155.9377 C.ar    1  UNL1        0.0374
      6 C         138.7428  140.3952  157.4100 C.ar    1  UNL1        0.0046
      7 C         139.2281  139.2736  158.2798 C.ar    1  UNL1        0.0177
      8 C         139.9997  138.1371  157.6772 C.ar    1  UNL1        0.0814
      9 N         140.2860  138.1223  156.2049 N.ar    1  UNL1       -0.2888
     10 C         142.9677  133.3272  156.7054 C.ar    1  UNL1        0.1057
     11 C         143.3917  134.6399  157.2944 C.ar    1  UNL1        0.0184
     12 C         142.7414  135.9120  156.8374 C.ar    1  UNL1        0.0028
     13 C         141.6672  135.8715  155.7914 C.ar    1  UNL1        0.0178
     14 C         141.2431  134.5587  155.2023 C.ar    1  UNL1        0.0028
     15 C         141.8934  133.2866  155.6594 C.ar    1  UNL1        0.0184
     16 C         144.2683  130.7831  157.6196 C.3     1  UNL1        0.1816
     17 S         143.6179  132.0550  157.1625 S.O2    1  UNL1        0.0104
     18 O         144.6430  132.8498  157.9160 O.2     1  UNL1       -0.1686
     19 O         142.5929  131.2604  156.4090 O.2     1  UNL1       -0.1686
     20 C         138.9417  139.2884  159.7522 C.ar    1  UNL1        0.0027
     21 C         137.8116  140.1165  160.2881 C.ar    1  UNL1        0.0001
     22 C         137.5252  140.1313  161.7605 C.ar    1  UNL1        0.0013
     23 C         138.3690  139.3181  162.6969 C.ar    1  UNL1        0.0183
     24 C         139.4991  138.4900  162.1609 C.ar    1  UNL1        0.1057
     25 C         139.7854  138.4752  160.6885 C.ar    1  UNL1        0.0184
     26 S         140.3428  137.6768  163.0972 S.O2    1  UNL1        0.0104
     27 C         141.1865  136.8635  164.0336 C.3     1  UNL1        0.1816
     28 O         139.3967  137.9870  164.2191 O.2     1  UNL1       -0.1686
     29 O         141.2889  137.3666  161.9753 O.2     1  UNL1       -0.1686
@<TRIPOS>BOND
     1    16    17    1
     2    17    18    2
     3    17    19    2
     4    17    10    1
     5    10    11   ar
     6    11    12   ar
     7    12    13   ar
     8    13     1    1
     9     1     2   ar
    10     2     3   ar
    11     3     4   ar
    12     4     5   ar
    13     5     6   ar
    14     6     7   ar
    15     7    20    1
    16    20    21   ar
    17    21    22   ar
    18    22    23   ar
    19    23    24   ar
    20    24    26    1
    21    26    27    1
    22    26    28    2
    23    26    29    2
    24    24    25   ar
    25     7     8   ar
    26     8     9   ar
    27    13    14   ar
    28    14    15   ar
    29    15    10   ar
    30     9     1   ar
    31     9     4   ar
    32    25    20   ar
@<TRIPOS>MOLECULE
*****
 29 32 0 0 0
SMALL
GASTEIGER

@<TRIPOS>ATOM
      1 C         140.0541  139.0735  165.1069 C.ar    1  UNL1        0.0845
      2 C         138.9890  138.0272  165.2514 C.ar    1  UNL1        0.1180
      3 N         138.7102  137.4588  163.8916 N.ar    1  UNL1       -0.2249
      4 C         139.6029  138.1538  162.9066 C.ar    1  UNL1        0.1478
      5 C         139.7667  138.0069  161.4229 C.ar    1  UNL1        0.0374
      6 C         140.7612  138.8579  160.6903 C.ar    1  UNL1        0.0046
      7 C         141.5917  139.8559  161.4414 C.ar    1  UNL1        0.0177
      8 C         141.4279  140.0029  162.9251 C.ar    1  UNL1        0.0814
      9 N         140.4334  139.1518  163.6577 N.ar    1  UNL1       -0.2888
     10 C         141.8038  141.5442  168.4362 C.ar    1  UNL1        0.1057
     11 C         142.6571  140.5407  167.7187 C.ar    1  UNL1        0.0184
     12 C         142.0738  139.7172  166.6089 C.ar    1  UNL1        0.0028
     13 C         140.6373  139.8971  166.2166 C.ar    1  UNL1        0.0178
     14 C         139.7840  140.9007  166.9342 C.ar    1  UNL1        0.0028
     15 C         140.3673  141.7242  168.0440 C.ar    1  UNL1        0.0184
     16 C         142.9703  143.1912  170.6558 C.3     1  UNL1        0.1816
     17 S         142.3871  142.3677  169.5460 S.O2    1  UNL1        0.0104
     18 O         141.1482  142.1454  170.3620 O.2     1  UNL1       -0.1686
     19 O         143.6259  142.5900  168.7299 O.2     1  UNL1       -0.1686
     20 C         142.5862  140.7070  160.7087 C.ar    1  UNL1        0.0027
     21 C         143.1154  141.9581  161.3447 C.ar    1  UNL1        0.0001
     22 C         144.1098  142.8092  160.6120 C.ar    1  UNL1        0.0013
     23 C         144.5751  142.4091  159.2433 C.ar    1  UNL1        0.0183
     24 C         144.0459  141.1578  158.6073 C.ar    1  UNL1        0.1057
     25 C         143.0515  140.3068  159.3400 C.ar    1  UNL1        0.0184
     26 S         144.5112  140.7577  157.2386 S.O2    1  UNL1        0.0104
     27 C         144.9765  140.3575  155.8699 C.3     1  UNL1        0.1816
     28 O         144.0138  139.3628  157.4773 O.2     1  UNL1       -0.1686
     29 O         145.0086  142.1525  156.9998 O.2     1  UNL1       -0.1686
@<TRIPOS>BOND
     1    16    17    1
     2    17    18    2
     3    17    19    2
     4    17    10    1
     5    10    11   ar
     6    11    12   ar
     7    12    13   ar
     8    13     1    1
     9     1     2   ar
    10     2     3   ar
    11     3     4   ar
    12     4     5   ar
    13     5     6   ar
    14     6     7   ar
    15     7    20    1
    16    20    21   ar
    17    21    22   ar
    18    22    23   ar
    19    23    24   ar
    20    24    26    1
    21    26    27    1
    22    26    28    2
    23    26    29    2
    24    24    25   ar
    25     7     8   ar
    26     8     9   ar
    27    13    14   ar
    28    14    15   ar
    29    15    10   ar
    30     9     1   ar
    31     9     4   ar
    32    25    20   ar
@<TRIPOS>MOLECULE
*****
 29 32 0 0 0
SMALL
GASTEIGER

@<TRIPOS>ATOM
      1 C         144.1148  141.3376  164.2081 C.ar    1  UNL1        0.0845
      2 C         145.5604  141.6910  164.0198 C.ar    1  UNL1        0.1180
      3 N         145.8081  141.8621  162.5503 N.ar    1  UNL1       -0.2249
      4 C         144.5157  141.6144  161.8304 C.ar    1  UNL1        0.1478
      5 C         144.1565  141.6422  160.3743 C.ar    1  UNL1        0.0374
      6 C         142.7509  141.3458  159.9428 C.ar    1  UNL1        0.0046
      7 C         141.7044  141.0217  160.9674 C.ar    1  UNL1        0.0177
      8 C         142.0635  140.9939  162.4235 C.ar    1  UNL1        0.0814
      9 N         143.4691  141.2903  162.8550 N.ar    1  UNL1       -0.2888
     10 C         142.0734  140.5565  168.1416 C.ar    1  UNL1        0.1057
     11 C         142.4965  141.9493  167.7798 C.ar    1  UNL1        0.0184
     12 C         143.1770  142.2097  166.4686 C.ar    1  UNL1        0.0028
     13 C         143.4344  141.0773  165.5193 C.ar    1  UNL1        0.0178
     14 C         143.0113  139.6843  165.8811 C.ar    1  UNL1        0.0028
     15 C         142.3308  139.4240  167.1923 C.ar    1  UNL1        0.0184
     16 C         140.7126  140.0358  170.7640 C.3     1  UNL1        0.1816
     17 S         141.3930  140.2961  169.4528 S.O2    1  UNL1        0.0104
     18 O         142.6707  140.6020  170.1766 O.2     1  UNL1       -0.1686
     19 O         140.1153  139.9902  168.7290 O.2     1  UNL1       -0.1686
     20 C         140.2986  140.7253  160.5358 C.ar    1  UNL1        0.0027
     21 C         139.4481  139.7893  161.3422 C.ar    1  UNL1        0.0001
     22 C         138.0424  139.4929  160.9106 C.ar    1  UNL1        0.0013
     23 C         137.4873  140.1325  159.6726 C.ar    1  UNL1        0.0183
     24 C         138.3379  141.0686  158.8662 C.ar    1  UNL1        0.1057
     25 C         139.7436  141.3649  159.2978 C.ar    1  UNL1        0.0184
     26 S         137.7829  141.7083  157.6281 S.O2    1  UNL1        0.0104
     27 C         137.2278  142.3479  156.3901 C.3     1  UNL1        0.1816
     28 O         138.6307  142.9209  157.8746 O.2     1  UNL1       -0.1686
     29 O         136.9351  140.4956  157.3817 O.2     1  UNL1       -0.1686
@<TRIPOS>BOND
     1    16    17    1
     2    17    18    2
     3    17    19    2
     4    17    10    1
     5    10    11   ar
     6    11    12   ar
     7    12    13   ar
     8    13     1    1
     9     1     2   ar
    10     2     3   ar
    11     3     4   ar
    12     4     5   ar
    13     5     6   ar
    14     6     7   ar
    15     7    20    1
    16    20    21   ar
    17    21    22   ar
    18    22    23   ar
    19    23    24   ar
    20    24    26    1
    21    26    27    1
    22    26    28    2
    23    26    29    2
    24    24    25   ar
    25     7     8   ar
    26     8     9   ar
    27    13    14   ar
    28    14    15   ar
    29    15    10   ar
    30     9     1   ar
    31     9     4   ar
    32    25    20   ar
@<TRIPOS>MOLECULE
*****
 29 32 0 0 0
SMALL
GASTEIGER

@<TRIPOS>ATOM
      1 C         139.9631  139.1058  165.0779 C.ar    1  UNL1        0.0845
      2 C         139.0734  137.9123  165.2624 C.ar    1  UNL1        0.1180
      3 N         138.6900  137.4055  163.9037 N.ar    1  UNL1       -0.2249
      4 C         139.3428  138.2857  162.8794 C.ar    1  UNL1        0.1478
      5 C         139.3224  138.2661  161.3797 C.ar    1  UNL1        0.0374
      6 C         140.0889  139.2973  160.6057 C.ar    1  UNL1        0.0046
      7 C         140.8757  140.3482  161.3314 C.ar    1  UNL1        0.0177
      8 C         140.8961  140.3678  162.8311 C.ar    1  UNL1        0.0814
      9 N         140.1296  139.3366  163.6051 N.ar    1  UNL1       -0.2888
     10 C         141.8088  141.5626  168.3654 C.ar    1  UNL1        0.1057
     11 C         140.3168  141.4467  168.2630 C.ar    1  UNL1        0.0184
     12 C         139.7016  140.6278  167.1671 C.ar    1  UNL1        0.0028
     13 C         140.5783  139.9247  166.1737 C.ar    1  UNL1        0.0178
     14 C         142.0704  140.0406  166.2761 C.ar    1  UNL1        0.0028
     15 C         142.6856  140.8595  167.3719 C.ar    1  UNL1        0.0184
     16 C         143.0393  143.2005  170.5570 C.3     1  UNL1        0.1816
     17 S         142.4240  142.3815  169.4612 S.O2    1  UNL1        0.0104
     18 O         143.6187  142.6453  168.5933 O.2     1  UNL1       -0.1686
     19 O         141.2294  142.1177  170.3291 O.2     1  UNL1       -0.1686
     20 C         141.6421  141.3794  160.5573 C.ar    1  UNL1        0.0027
     21 C         143.1179  141.2146  160.3456 C.ar    1  UNL1        0.0001
     22 C         143.8844  142.2459  159.5715 C.ar    1  UNL1        0.0013
     23 C         143.1750  143.4419  159.0092 C.ar    1  UNL1        0.0183
     24 C         141.6991  143.6067  159.2210 C.ar    1  UNL1        0.1057
     25 C         140.9327  142.5755  159.9951 C.ar    1  UNL1        0.0184
     26 S         140.9897  144.8028  158.6587 S.O2    1  UNL1        0.0104
     27 C         140.2803  145.9989  158.0964 C.3     1  UNL1        0.1816
     28 O         139.6751  144.2301  159.0989 O.2     1  UNL1       -0.1686
     29 O         142.3043  145.3756  158.2185 O.2     1  UNL1       -0.1686
@<TRIPOS>BOND
     1    16    17    1
     2    17    18    2
     3    17    19    2
     4    17    10    1
     5    10    11   ar
     6    11    12   ar
     7    12    13   ar
     8    13     1    1
     9     1     2   ar
    10     2     3   ar
    11     3     4   ar
    12     4     5   ar
    13     5     6   ar
    14     6     7   ar
    15     7    20    1
    16    20    21   ar
    17    21    22   ar
    18    22    23   ar
    19    23    24   ar
    20    24    26    1
    21    26    27    1
    22    26    28    2
    23    26    29    2
    24    24    25   ar
    25     7     8   ar
    26     8     9   ar
    27    13    14   ar
    28    14    15   ar
    29    15    10   ar
    30     9     1   ar
    31     9     4   ar
    32    25    20   ar
