@<TRIPOS>MOLECULE
*****
 29 33 0 0 0
SMALL
GASTEIGER

@<TRIPOS>ATOM
      1 O         142.6227  144.7404  161.7871 O.2     1  UNL1       -0.2866
      2 C         142.2880  143.7546  162.8670 C.2     1  UNL1        0.1950
      3 C         143.3130  142.7545  163.3135 C.ar    1  UNL1        0.0353
      4 C         144.6726  142.7404  162.6802 C.ar    1  UNL1        0.0029
      5 C         145.6975  141.7404  163.1268 C.ar    1  UNL1        0.0001
      6 C         145.3628  140.7545  164.2066 C.ar    1  UNL1       -0.0003
      7 C         144.0032  140.7687  164.8399 C.ar    1  UNL1       -0.0039
      8 C         142.9782  141.7687  164.3934 C.ar    1  UNL1       -0.0153
      9 C         141.6185  141.7829  165.0267 C.3     1  UNL1        0.0460
     10 C         140.5936  142.7829  164.5801 C.ar    1  UNL1       -0.0153
     11 C         139.2338  142.7971  165.2134 C.ar    1  UNL1       -0.0039
     12 C         138.2089  143.7971  164.7668 C.ar    1  UNL1       -0.0003
     13 C         138.5436  144.7829  163.6870 C.ar    1  UNL1        0.0001
     14 C         139.9033  144.7688  163.0537 C.ar    1  UNL1        0.0029
     15 C         140.9283  143.7687  163.5003 C.ar    1  UNL1        0.0353
     16 C         142.2471  140.6513  165.7846 C.3     1  UNL1        0.0349
     17 C         142.5427  140.8011  167.2475 C.ar    1  UNL1       -0.0185
     18 C         142.4702  139.6077  168.1534 C.ar    1  UNL1        0.0164
     19 C         142.7658  139.7576  169.6163 C.ar    1  UNL1        0.0986
     20 N         143.1339  141.1008  170.1733 N.ar    1  UNL1       -0.2423
     21 C         143.2064  142.2942  169.2674 C.ar    1  UNL1        0.0986
     22 C         142.9108  142.1443  167.8045 C.ar    1  UNL1        0.0164
     23 C         140.4771  141.4040  165.9232 C.3     1  UNL1        0.0349
     24 C         139.7796  140.0896  165.7345 C.ar    1  UNL1       -0.0185
     25 C         140.0237  139.2822  164.4941 C.ar    1  UNL1        0.0164
     26 C         139.3262  137.9677  164.3054 C.ar    1  UNL1        0.0986
     27 N         138.3845  137.4606  165.3572 N.ar    1  UNL1       -0.2423
     28 C         138.1404  138.2680  166.5975 C.ar    1  UNL1        0.0986
     29 C         138.8379  139.5825  166.7862 C.ar    1  UNL1        0.0164
@<TRIPOS>BOND
     1     1     2    2
     2     2     3    1
     3     3     4   ar
     4     4     5   ar
     5     5     6   ar
     6     6     7   ar
     7     7     8   ar
     8     8     9    1
     9     9    16    1
    10    16    17    1
    11    17    18   ar
    12    18    19   ar
    13    19    20   ar
    14    20    21   ar
    15    21    22   ar
    16     9    23    1
    17    23    24    1
    18    24    25   ar
    19    25    26   ar
    20    26    27   ar
    21    27    28   ar
    22    28    29   ar
    23     9    10    1
    24    10    11   ar
    25    11    12   ar
    26    12    13   ar
    27    13    14   ar
    28    14    15   ar
    29    15     2    1
    30     8     3   ar
    31    22    17   ar
    32    29    24   ar
    33    15    10   ar
@<TRIPOS>MOLECULE
*****
 29 33 0 0 0
SMALL
GASTEIGER

@<TRIPOS>ATOM
      1 O         142.6059  144.7412  161.7941 O.2     1  UNL1       -0.2866
      2 C         142.2698  143.7527  162.8711 C.2     1  UNL1        0.1950
      3 C         140.9088  143.7644  163.5017 C.ar    1  UNL1        0.0353
      4 C         139.8840  144.7646  163.0553 C.ar    1  UNL1        0.0029
      5 C         138.5230  144.7762  163.6859 C.ar    1  UNL1        0.0001
      6 C         138.1869  143.7877  164.7628 C.ar    1  UNL1       -0.0003
      7 C         139.2117  142.7875  165.2092 C.ar    1  UNL1       -0.0039
      8 C         140.5727  142.7758  164.5786 C.ar    1  UNL1       -0.0153
      9 C         141.5976  141.7756  165.0250 C.3     1  UNL1        0.0460
     10 C         142.9585  141.7639  164.3944 C.ar    1  UNL1       -0.0153
     11 C         143.9834  140.7637  164.8408 C.ar    1  UNL1       -0.0039
     12 C         145.3444  140.7520  164.2102 C.ar    1  UNL1       -0.0003
     13 C         145.6805  141.7406  163.1333 C.ar    1  UNL1        0.0001
     14 C         144.6556  142.7408  162.6869 C.ar    1  UNL1        0.0029
     15 C         143.2946  142.7525  163.3175 C.ar    1  UNL1        0.0353
     16 C         140.4547  141.3938  165.9184 C.3     1  UNL1        0.0349
     17 C         139.7635  140.0760  165.7303 C.ar    1  UNL1       -0.0185
     18 C         138.8334  139.5592  166.7876 C.ar    1  UNL1        0.0164
     19 C         138.1422  138.2413  166.5994 C.ar    1  UNL1        0.0986
     20 N         138.3810  137.4402  165.3540 N.ar    1  UNL1       -0.2423
     21 C         139.3111  137.9570  164.2966 C.ar    1  UNL1        0.0986
     22 C         140.0023  139.2749  164.4848 C.ar    1  UNL1        0.0164
     23 C         142.2255  140.6428  165.7817 C.3     1  UNL1        0.0349
     24 C         142.5202  140.7905  167.2450 C.ar    1  UNL1       -0.0185
     25 C         142.4515  139.5948  168.1483 C.ar    1  UNL1        0.0164
     26 C         142.7461  139.7425  169.6116 C.ar    1  UNL1        0.0986
     27 N         143.1095  141.0858  170.1717 N.ar    1  UNL1       -0.2423
     28 C         143.1781  142.2813  169.2684 C.ar    1  UNL1        0.0986
     29 C         142.8835  142.1337  167.8051 C.ar    1  UNL1        0.0164
@<TRIPOS>BOND
     1     1     2    2
     2     2     3    1
     3     3     4   ar
     4     4     5   ar
     5     5     6   ar
     6     6     7   ar
     7     7     8   ar
     8     8     9    1
     9     9    16    1
    10    16    17    1
    11    17    18   ar
    12    18    19   ar
    13    19    20   ar
    14    20    21   ar
    15    21    22   ar
    16     9    23    1
    17    23    24    1
    18    24    25   ar
    19    25    26   ar
    20    26    27   ar
    21    27    28   ar
    22    28    29   ar
    23     9    10    1
    24    10    11   ar
    25    11    12   ar
    26    12    13   ar
    27    13    14   ar
    28    14    15   ar
    29    15     2    1
    30     8     3   ar
    31    22    17   ar
    32    29    24   ar
    33    15    10   ar
@<TRIPOS>MOLECULE
*****
 29 33 0 0 0
SMALL
GASTEIGER

@<TRIPOS>ATOM
      1 O         139.6853  139.5196  170.4411 O.2     1  UNL1       -0.2866
      2 C         140.2438  140.1335  169.1915 C.2     1  UNL1        0.1950
      3 C         141.4752  140.9873  169.2610 C.ar    1  UNL1        0.0353
      4 C         142.1481  141.2271  170.5800 C.ar    1  UNL1        0.0029
      5 C         143.3795  142.0808  170.6494 C.ar    1  UNL1        0.0001
      6 C         143.9380  142.6947  169.3999 C.ar    1  UNL1       -0.0003
      7 C         143.2651  142.4548  168.0810 C.ar    1  UNL1       -0.0039
      8 C         142.0337  141.6011  168.0115 C.ar    1  UNL1       -0.0153
      9 C         141.3608  141.3612  166.6925 C.3     1  UNL1        0.0460
     10 C         140.1294  140.5075  166.6231 C.ar    1  UNL1       -0.0153
     11 C         139.4564  140.2676  165.3041 C.ar    1  UNL1       -0.0039
     12 C         138.2251  139.4139  165.2347 C.ar    1  UNL1       -0.0003
     13 C         137.6666  138.8001  166.4842 C.ar    1  UNL1        0.0001
     14 C         138.3395  139.0399  167.8031 C.ar    1  UNL1        0.0029
     15 C         139.5709  139.8937  167.8726 C.ar    1  UNL1        0.0353
     16 C         142.4953  142.2374  166.2506 C.3     1  UNL1        0.0349
     17 C         143.5227  141.7086  165.2942 C.ar    1  UNL1       -0.0185
     18 C         144.3532  142.6595  164.4842 C.ar    1  UNL1        0.0164
     19 C         145.3806  142.1306  163.5278 C.ar    1  UNL1        0.0986
     20 N         145.5776  140.6509  163.3813 N.ar    1  UNL1       -0.2423
     21 C         144.7471  139.6999  164.1913 C.ar    1  UNL1        0.0986
     22 C         143.7197  140.2288  165.1477 C.ar    1  UNL1        0.0164
     23 C         141.0819  141.4256  165.2200 C.3     1  UNL1        0.0349
     24 C         140.5055  142.6736  164.6198 C.ar    1  UNL1       -0.0185
     25 C         139.6912  143.6063  165.4667 C.ar    1  UNL1        0.0164
     26 C         139.1148  144.8543  164.8665 C.ar    1  UNL1        0.0986
     27 N         139.3526  145.1695  163.4193 N.ar    1  UNL1       -0.2423
     28 C         140.1668  144.2368  162.5725 C.ar    1  UNL1        0.0986
     29 C         140.7432  142.9889  163.1728 C.ar    1  UNL1        0.0164
@<TRIPOS>BOND
     1     1     2    2
     2     2     3    1
     3     3     4   ar
     4     4     5   ar
     5     5     6   ar
     6     6     7   ar
     7     7     8   ar
     8     8     9    1
     9     9    16    1
    10    16    17    1
    11    17    18   ar
    12    18    19   ar
    13    19    20   ar
    14    20    21   ar
    15    21    22   ar
    16     9    23    1
    17    23    24    1
    18    24    25   ar
    19    25    26   ar
    20    26    27   ar
    21    27    28   ar
    22    28    29   ar
    23     9    10    1
    24    10    11   ar
    25    11    12   ar
    26    12    13   ar
    27    13    14   ar
    28    14    15   ar
    29    15     2    1
    30     8     3   ar
    31    22    17   ar
    32    29    24   ar
    33    15    10   ar
@<TRIPOS>MOLECULE
*****
 29 33 0 0 0
SMALL
GASTEIGER

@<TRIPOS>ATOM
      1 O         139.6810  139.5458  170.4513 O.2     1  UNL1       -0.2866
      2 C         140.2413  140.1541  169.1999 C.2     1  UNL1        0.1950
      3 C         139.5682  139.9116  167.8815 C.ar    1  UNL1        0.0353
      4 C         138.3347  139.0607  167.8145 C.ar    1  UNL1        0.0029
      5 C         137.6616  138.8182  166.4962 C.ar    1  UNL1        0.0001
      6 C         138.2219  139.4265  165.2448 C.ar    1  UNL1       -0.0003
      7 C         139.4554  140.2774  165.3118 C.ar    1  UNL1       -0.0039
      8 C         140.1285  140.5199  166.6301 C.ar    1  UNL1       -0.0153
      9 C         141.3621  141.3708  166.6972 C.3     1  UNL1        0.0460
     10 C         142.0352  141.6133  168.0155 C.ar    1  UNL1       -0.0153
     11 C         143.2687  142.4642  168.0825 C.ar    1  UNL1       -0.0039
     12 C         143.9419  142.7067  169.4008 C.ar    1  UNL1       -0.0003
     13 C         143.3815  142.0984  170.6522 C.ar    1  UNL1        0.0001
     14 C         142.1480  141.2475  170.5852 C.ar    1  UNL1        0.0029
     15 C         141.4748  141.0050  169.2669 C.ar    1  UNL1        0.0353
     16 C         141.0837  141.4310  165.2244 C.3     1  UNL1        0.0349
     17 C         140.5111  142.6786  164.6198 C.ar    1  UNL1       -0.0185
     18 C         140.7486  142.9873  163.1712 C.ar    1  UNL1        0.0164
     19 C         140.1759  144.2349  162.5666 C.ar    1  UNL1        0.0986
     20 N         139.3657  145.1738  163.4105 N.ar    1  UNL1       -0.2423
     21 C         139.1283  144.8650  164.8591 C.ar    1  UNL1        0.0986
     22 C         139.7010  143.6174  165.4636 C.ar    1  UNL1        0.0164
     23 C         142.4989  142.2426  166.2526 C.3     1  UNL1        0.0349
     24 C         143.5217  141.7101  165.2933 C.ar    1  UNL1       -0.0185
     25 C         143.7212  140.2298  165.1550 C.ar    1  UNL1        0.0164
     26 C         144.7440  139.6973  164.1957 C.ar    1  UNL1        0.0986
     27 N         145.5673  140.6451  163.3747 N.ar    1  UNL1       -0.2423
     28 C         145.3678  142.1252  163.5131 C.ar    1  UNL1        0.0986
     29 C         144.3450  142.6578  164.4724 C.ar    1  UNL1        0.0164
@<TRIPOS>BOND
     1     1     2    2
     2     2     3    1
     3     3     4   ar
     4     4     5   ar
     5     5     6   ar
     6     6     7   ar
     7     7     8   ar
     8     8     9    1
     9     9    16    1
    10    16    17    1
    11    17    18   ar
    12    18    19   ar
    13    19    20   ar
    14    20    21   ar
    15    21    22   ar
    16     9    23    1
    17    23    24    1
    18    24    25   ar
    19    25    26   ar
    20    26    27   ar
    21    27    28   ar
    22    28    29   ar
    23     9    10    1
    24    10    11   ar
    25    11    12   ar
    26    12    13   ar
    27    13    14   ar
    28    14    15   ar
    29    15     2    1
    30     8     3   ar
    31    22    17   ar
    32    29    24   ar
    33    15    10   ar
@<TRIPOS>MOLECULE
*****
 29 33 0 0 0
SMALL
GASTEIGER

@<TRIPOS>ATOM
      1 O         136.6838  141.1822  162.6006 O.2     1  UNL1       -0.2866
      2 C         138.0177  141.2173  163.2857 C.2     1  UNL1        0.1950
      3 C         138.3836  142.3832  164.1557 C.ar    1  UNL1        0.0353
      4 C         137.4156  143.5140  164.3406 C.ar    1  UNL1        0.0029
      5 C         137.7814  144.6798  165.2106 C.ar    1  UNL1        0.0001
      6 C         139.1154  144.7149  165.8957 C.ar    1  UNL1       -0.0003
      7 C         140.0834  143.5842  165.7108 C.ar    1  UNL1       -0.0039
      8 C         139.7176  142.4183  164.8408 C.ar    1  UNL1       -0.0153
      9 C         140.6856  141.2875  164.6559 C.3     1  UNL1        0.0460
     10 C         140.3198  140.1217  163.7859 C.ar    1  UNL1       -0.0153
     11 C         141.2878  138.9908  163.6010 C.ar    1  UNL1       -0.0039
     12 C         140.9219  137.8250  162.7310 C.ar    1  UNL1       -0.0003
     13 C         139.5880  137.7899  162.0459 C.ar    1  UNL1        0.0001
     14 C         138.6199  138.9207  162.2308 C.ar    1  UNL1        0.0029
     15 C         138.9858  140.0866  163.1008 C.ar    1  UNL1        0.0353
     16 C         141.4840  142.1667  165.5722 C.3     1  UNL1        0.0349
     17 C         141.7652  141.7258  166.9781 C.ar    1  UNL1       -0.0185
     18 C         142.9500  142.2773  167.7144 C.ar    1  UNL1        0.0164
     19 C         143.2310  141.8364  169.1203 C.ar    1  UNL1        0.0986
     20 N         142.3273  140.8439  169.7899 N.ar    1  UNL1       -0.2423
     21 C         141.1425  140.2924  169.0536 C.ar    1  UNL1        0.0986
     22 C         140.8615  140.7334  167.6477 C.ar    1  UNL1        0.0164
     23 C         141.9310  140.4620  164.7892 C.3     1  UNL1        0.0349
     24 C         143.1996  140.9056  164.1230 C.ar    1  UNL1       -0.0185
     25 C         144.5242  140.4225  164.6351 C.ar    1  UNL1        0.0164
     26 C         145.7928  140.8660  163.9689 C.ar    1  UNL1        0.0986
     27 N         145.7369  141.7926  162.7905 N.ar    1  UNL1       -0.2423
     28 C         144.4123  142.2757  162.2785 C.ar    1  UNL1        0.0986
     29 C         143.1437  141.8321  162.9448 C.ar    1  UNL1        0.0164
@<TRIPOS>BOND
     1     1     2    2
     2     2     3    1
     3     3     4   ar
     4     4     5   ar
     5     5     6   ar
     6     6     7   ar
     7     7     8   ar
     8     8     9    1
     9     9    16    1
    10    16    17    1
    11    17    18   ar
    12    18    19   ar
    13    19    20   ar
    14    20    21   ar
    15    21    22   ar
    16     9    23    1
    17    23    24    1
    18    24    25   ar
    19    25    26   ar
    20    26    27   ar
    21    27    28   ar
    22    28    29   ar
    23     9    10    1
    24    10    11   ar
    25    11    12   ar
    26    12    13   ar
    27    13    14   ar
    28    14    15   ar
    29    15     2    1
    30     8     3   ar
    31    22    17   ar
    32    29    24   ar
    33    15    10   ar
@<TRIPOS>MOLECULE
*****
 29 33 0 0 0
SMALL
GASTEIGER

@<TRIPOS>ATOM
      1 O         136.9233  141.7296  162.5051 O.2     1  UNL1       -0.2866
      2 C         137.9847  141.4108  163.5160 C.2     1  UNL1        0.1950
      3 C         138.5600  140.0274  163.5886 C.ar    1  UNL1        0.0353
      4 C         138.0740  138.9628  162.6503 C.ar    1  UNL1        0.0029
      5 C         138.6493  137.5795  162.7229 C.ar    1  UNL1        0.0001
      6 C         139.7106  137.2607  163.7338 C.ar    1  UNL1       -0.0003
      7 C         140.1967  138.3252  164.6721 C.ar    1  UNL1       -0.0039
      8 C         139.6214  139.7086  164.5995 C.ar    1  UNL1       -0.0153
      9 C         140.1074  140.7732  165.5378 C.3     1  UNL1        0.0460
     10 C         139.5321  142.1566  165.4652 C.ar    1  UNL1       -0.0153
     11 C         140.0181  143.2212  166.4035 C.ar    1  UNL1       -0.0039
     12 C         139.4428  144.6046  166.3309 C.ar    1  UNL1       -0.0003
     13 C         138.3815  144.9234  165.3200 C.ar    1  UNL1        0.0001
     14 C         137.8954  143.8588  164.3817 C.ar    1  UNL1        0.0029
     15 C         138.4707  142.4754  164.4543 C.ar    1  UNL1        0.0353
     16 C         140.9536  139.6205  165.9909 C.3     1  UNL1        0.0349
     17 C         142.3901  139.5328  165.5681 C.ar    1  UNL1       -0.0185
     18 C         142.8990  140.4015  164.4562 C.ar    1  UNL1        0.0164
     19 C         144.3355  140.3138  164.0334 C.ar    1  UNL1        0.0986
     20 N         145.2631  139.3574  164.7226 N.ar    1  UNL1       -0.2423
     21 C         144.7542  138.4888  165.8346 C.ar    1  UNL1        0.0986
     22 C         143.3177  138.5765  166.2573 C.ar    1  UNL1        0.0164
     23 C         140.8873  141.4375  166.6335 C.3     1  UNL1        0.0349
     24 C         140.6544  141.0469  168.0629 C.ar    1  UNL1       -0.0185
     25 C         139.3585  140.4065  168.4637 C.ar    1  UNL1        0.0164
     26 C         139.1255  140.0159  169.8931 C.ar    1  UNL1        0.0986
     27 N         140.1884  140.2657  170.9216 N.ar    1  UNL1       -0.2423
     28 C         141.4842  140.9060  170.5208 C.ar    1  UNL1        0.0986
     29 C         141.7172  141.2966  169.0914 C.ar    1  UNL1        0.0164
@<TRIPOS>BOND
     1     1     2    2
     2     2     3    1
     3     3     4   ar
     4     4     5   ar
     5     5     6   ar
     6     6     7   ar
     7     7     8   ar
     8     8     9    1
     9     9    16    1
    10    16    17    1
    11    17    18   ar
    12    18    19   ar
    13    19    20   ar
    14    20    21   ar
    15    21    22   ar
    16     9    23    1
    17    23    24    1
    18    24    25   ar
    19    25    26   ar
    20    26    27   ar
    21    27    28   ar
    22    28    29   ar
    23     9    10    1
    24    10    11   ar
    25    11    12   ar
    26    12    13   ar
    27    13    14   ar
    28    14    15   ar
    29    15     2    1
    30     8     3   ar
    31    22    17   ar
    32    29    24   ar
    33    15    10   ar
@<TRIPOS>MOLECULE
*****
 29 33 0 0 0
SMALL
GASTEIGER

@<TRIPOS>ATOM
      1 O         137.7609  139.2118  169.5639 O.2     1  UNL1       -0.2866
      2 C         138.6768  139.7950  168.5291 C.2     1  UNL1        0.1950
      3 C         139.4909  141.0135  168.8493 C.ar    1  UNL1        0.0353
      4 C         139.3892  141.6487  170.2043 C.ar    1  UNL1        0.0029
      5 C         140.2033  142.8671  170.5245 C.ar    1  UNL1        0.0001
      6 C         141.1192  143.4504  169.4897 C.ar    1  UNL1       -0.0003
      7 C         141.2210  142.8152  168.1346 C.ar    1  UNL1       -0.0039
      8 C         140.4069  141.5968  167.8145 C.ar    1  UNL1       -0.0153
      9 C         140.5086  140.9615  166.4594 C.3     1  UNL1        0.0460
     10 C         139.6945  139.7431  166.1392 C.ar    1  UNL1       -0.0153
     11 C         139.7962  139.1079  164.7841 C.ar    1  UNL1       -0.0039
     12 C         138.9821  137.8895  164.4639 C.ar    1  UNL1       -0.0003
     13 C         138.0661  137.3062  165.4987 C.ar    1  UNL1        0.0001
     14 C         137.9644  137.9414  166.8538 C.ar    1  UNL1        0.0029
     15 C         138.7785  139.1599  167.1740 C.ar    1  UNL1        0.0353
     16 C         141.4746  142.0963  166.2883 C.3     1  UNL1        0.0349
     17 C         141.1777  143.1929  165.3090 C.ar    1  UNL1       -0.0185
     18 C         139.7587  143.6076  165.0549 C.ar    1  UNL1        0.0164
     19 C         139.4618  144.7043  164.0756 C.ar    1  UNL1        0.0986
     20 N         140.5838  145.3863  163.3503 N.ar    1  UNL1       -0.2423
     21 C         142.0028  144.9716  163.6044 C.ar    1  UNL1        0.0986
     22 C         142.2996  143.8749  164.5837 C.ar    1  UNL1        0.0164
     23 C         140.9459  140.7204  165.0449 C.3     1  UNL1        0.0349
     24 C         142.3282  140.2105  164.7638 C.ar    1  UNL1       -0.0185
     25 C         143.0631  139.4218  165.8068 C.ar    1  UNL1        0.0164
     26 C         144.4455  138.9118  165.5258 C.ar    1  UNL1        0.0986
     27 N         145.0929  139.1906  164.2017 N.ar    1  UNL1       -0.2423
     28 C         144.3580  139.9792  163.1587 C.ar    1  UNL1        0.0986
     29 C         142.9757  140.4892  163.4398 C.ar    1  UNL1        0.0164
@<TRIPOS>BOND
     1     1     2    2
     2     2     3    1
     3     3     4   ar
     4     4     5   ar
     5     5     6   ar
     6     6     7   ar
     7     7     8   ar
     8     8     9    1
     9     9    16    1
    10    16    17    1
    11    17    18   ar
    12    18    19   ar
    13    19    20   ar
    14    20    21   ar
    15    21    22   ar
    16     9    23    1
    17    23    24    1
    18    24    25   ar
    19    25    26   ar
    20    26    27   ar
    21    27    28   ar
    22    28    29   ar
    23     9    10    1
    24    10    11   ar
    25    11    12   ar
    26    12    13   ar
    27    13    14   ar
    28    14    15   ar
    29    15     2    1
    30     8     3   ar
    31    22    17   ar
    32    29    24   ar
    33    15    10   ar
@<TRIPOS>MOLECULE
*****
 29 33 0 0 0
SMALL
GASTEIGER

@<TRIPOS>ATOM
      1 O         143.8845  142.6339  169.0544 O.2     1  UNL1       -0.2866
      2 C         142.9653  142.2435  167.9352 C.2     1  UNL1        0.1950
      3 C         141.7273  141.4475  168.2245 C.ar    1  UNL1        0.0353
      4 C         141.4085  141.0419  169.6329 C.ar    1  UNL1        0.0029
      5 C         140.1705  140.2459  169.9221 C.ar    1  UNL1        0.0001
      6 C         139.2513  139.8555  168.8029 C.ar    1  UNL1       -0.0003
      7 C         139.5701  140.2611  167.3945 C.ar    1  UNL1       -0.0039
      8 C         140.8081  141.0571  167.1052 C.ar    1  UNL1       -0.0153
      9 C         141.1269  141.4627  165.6967 C.3     1  UNL1        0.0460
     10 C         142.3649  142.2587  165.4075 C.ar    1  UNL1       -0.0153
     11 C         142.6838  142.6644  163.9989 C.ar    1  UNL1       -0.0039
     12 C         143.9218  143.4604  163.7097 C.ar    1  UNL1       -0.0003
     13 C         144.8410  143.8508  164.8289 C.ar    1  UNL1        0.0001
     14 C         144.5222  143.4452  166.2374 C.ar    1  UNL1        0.0029
     15 C         143.2841  142.6491  166.5267 C.ar    1  UNL1        0.0353
     16 C         139.8450  140.7177  165.4694 C.3     1  UNL1        0.0349
     17 C         139.8286  139.5052  164.5866 C.ar    1  UNL1       -0.0185
     18 C         138.5991  139.1699  163.7955 C.ar    1  UNL1        0.0164
     19 C         138.5828  137.9573  162.9127 C.ar    1  UNL1        0.0986
     20 N         139.7960  137.0800  162.8209 N.ar    1  UNL1       -0.2423
     21 C         141.0256  137.4152  163.6120 C.ar    1  UNL1        0.0986
     22 C         141.0418  138.6278  164.4948 C.ar    1  UNL1        0.0164
     23 C         141.0005  141.6096  164.2092 C.3     1  UNL1        0.0349
     24 C         139.9348  142.4925  163.6307 C.ar    1  UNL1       -0.0185
     25 C         139.2830  143.5394  164.4846 C.ar    1  UNL1        0.0164
     26 C         138.2173  144.4223  163.9060 C.ar    1  UNL1        0.0986
     27 N         137.8034  144.2583  162.4735 N.ar    1  UNL1       -0.2423
     28 C         138.4552  143.2113  161.6197 C.ar    1  UNL1        0.0986
     29 C         139.5209  142.3285  162.1983 C.ar    1  UNL1        0.0164
@<TRIPOS>BOND
     1     1     2    2
     2     2     3    1
     3     3     4   ar
     4     4     5   ar
     5     5     6   ar
     6     6     7   ar
     7     7     8   ar
     8     8     9    1
     9     9    16    1
    10    16    17    1
    11    17    18   ar
    12    18    19   ar
    13    19    20   ar
    14    20    21   ar
    15    21    22   ar
    16     9    23    1
    17    23    24    1
    18    24    25   ar
    19    25    26   ar
    20    26    27   ar
    21    27    28   ar
    22    28    29   ar
    23     9    10    1
    24    10    11   ar
    25    11    12   ar
    26    12    13   ar
    27    13    14   ar
    28    14    15   ar
    29    15     2    1
    30     8     3   ar
    31    22    17   ar
    32    29    24   ar
    33    15    10   ar
@<TRIPOS>MOLECULE
*****
 29 33 0 0 0
SMALL
GASTEIGER

@<TRIPOS>ATOM
      1 O         136.9487  141.8355  162.4554 O.2     1  UNL1       -0.2866
      2 C         137.9803  141.4564  163.4761 C.2     1  UNL1        0.1950
      3 C         138.4691  142.4753  164.4626 C.ar    1  UNL1        0.0353
      4 C         137.9262  143.8731  164.4284 C.ar    1  UNL1        0.0029
      5 C         138.4150  144.8919  165.4148 C.ar    1  UNL1        0.0001
      6 C         139.4466  144.5128  166.4356 C.ar    1  UNL1       -0.0003
      7 C         139.9895  143.1149  166.4699 C.ar    1  UNL1       -0.0039
      8 C         139.5008  142.0962  165.4834 C.ar    1  UNL1       -0.0153
      9 C         140.0437  140.6982  165.5176 C.3     1  UNL1        0.0460
     10 C         139.5549  139.6795  164.5311 C.ar    1  UNL1       -0.0153
     11 C         140.0978  138.2815  164.5654 C.ar    1  UNL1       -0.0039
     12 C         139.6090  137.2628  163.5789 C.ar    1  UNL1       -0.0003
     13 C         138.5774  137.6419  162.5581 C.ar    1  UNL1        0.0001
     14 C         138.0345  139.0397  162.5239 C.ar    1  UNL1        0.0029
     15 C         138.5232  140.0586  163.5104 C.ar    1  UNL1        0.0353
     16 C         140.8139  141.3047  166.6530 C.3     1  UNL1        0.0349
     17 C         140.5362  140.8736  168.0625 C.ar    1  UNL1       -0.0185
     18 C         141.6045  140.9956  169.1085 C.ar    1  UNL1        0.0164
     19 C         141.3267  140.5644  170.5180 C.ar    1  UNL1        0.0986
     20 N         139.9807  140.0113  170.8818 N.ar    1  UNL1       -0.2423
     21 C         138.9124  139.8893  169.8359 C.ar    1  UNL1        0.0986
     22 C         139.1902  140.3205  168.4263 C.ar    1  UNL1        0.0164
     23 C         140.8541  139.5109  165.9462 C.3     1  UNL1        0.0349
     24 C         142.3042  139.4187  165.5736 C.ar    1  UNL1       -0.0185
     25 C         142.8506  140.2740  164.4691 C.ar    1  UNL1        0.0164
     26 C         144.3006  140.1818  164.0965 C.ar    1  UNL1        0.0986
     27 N         145.2043  139.2343  164.8285 N.ar    1  UNL1       -0.2423
     28 C         144.6578  138.3791  165.9330 C.ar    1  UNL1        0.0986
     29 C         143.2078  138.4713  166.3056 C.ar    1  UNL1        0.0164
@<TRIPOS>BOND
     1     1     2    2
     2     2     3    1
     3     3     4   ar
     4     4     5   ar
     5     5     6   ar
     6     6     7   ar
     7     7     8   ar
     8     8     9    1
     9     9    16    1
    10    16    17    1
    11    17    18   ar
    12    18    19   ar
    13    19    20   ar
    14    20    21   ar
    15    21    22   ar
    16     9    23    1
    17    23    24    1
    18    24    25   ar
    19    25    26   ar
    20    26    27   ar
    21    27    28   ar
    22    28    29   ar
    23     9    10    1
    24    10    11   ar
    25    11    12   ar
    26    12    13   ar
    27    13    14   ar
    28    14    15   ar
    29    15     2    1
    30     8     3   ar
    31    22    17   ar
    32    29    24   ar
    33    15    10   ar
