@<TRIPOS>MOLECULE
*****
 24 28 0 0 0
SMALL
GASTEIGER

@<TRIPOS>ATOM
      1 C         142.6441  139.5113  169.5407 C.ar    1  UNL1        0.2845
      2 N         143.3786  140.1526  170.6805 N.ar    1  UNL1       -0.1039
      3 N         144.0893  139.0722  171.4404 N.ar    1  UNL1       -0.1113
      4 C         143.7940  137.7630  170.7704 C.ar    1  UNL1        0.2275
      5 O         142.9008  138.0344  169.5963 O.2     1  UNL1       -0.4171
      6 C         144.9567  135.6576  171.9456 C.3     1  UNL1        0.0942
      7 C         146.0640  136.1003  172.5917 C.3     1  UNL1        0.0814
      8 N         146.7446  136.3216  172.9988 N.3     1  UNL1       -0.2723
      9 C         146.3831  134.8664  173.0411 C.3     1  UNL1        0.0721
     10 C         145.1585  134.3768  172.3265 C.3     1  UNL1        0.0179
     11 C         144.2955  135.3424  171.5696 C.3     1  UNL1        0.0129
     12 C         144.6570  136.7975  171.5273 C.3     1  UNL1        0.0179
     13 C         145.8816  137.2871  172.2419 C.3     1  UNL1        0.0721
     14 C         141.0891  141.7453  166.7737 C.ar    1  UNL1        0.1470
     15 C         139.9173  140.8855  167.1446 C.ar    1  UNL1        0.0408
     16 C         140.3572  139.9440  168.2262 C.ar    1  UNL1        0.0455
     17 C         141.8008  140.2219  168.5239 C.ar    1  UNL1        0.2001
     18 O         142.2532  141.3352  167.6261 O.2     1  UNL1       -0.4487
     19 C         139.8412  144.6569  164.3829 C.ar    1  UNL1        0.0208
     20 C         141.1089  144.9863  163.6518 C.ar    1  UNL1        0.0989
     21 N         142.3700  144.2353  163.9614 N.ar    1  UNL1       -0.2422
     22 C         142.3633  143.1551  165.0020 C.ar    1  UNL1        0.1019
     23 C         141.0957  142.8257  165.7331 C.ar    1  UNL1        0.0537
     24 C         139.8346  143.5766  165.4235 C.ar    1  UNL1        0.0062
@<TRIPOS>BOND
     1    19    20   ar
     2    20    21   ar
     3    21    22   ar
     4    22    23   ar
     5    23    14    1
     6    14    15   ar
     7    15    16   ar
     8    16    17   ar
     9    17     1    1
    10     1     2   ar
    11     2     3   ar
    12     3     4   ar
    13     4     6    1
    14     6     7    1
    15     7     8    1
    16     8     9    1
    17     9    10    1
    18    10    11    1
    19    11    12    1
    20    12    13    1
    21     4     5   ar
    22    17    18   ar
    23    23    24   ar
    24    24    19   ar
    25    18    14   ar
    26     5     1   ar
    27    11     6    1
    28    13     8    1
@<TRIPOS>MOLECULE
*****
 24 28 0 0 0
SMALL
GASTEIGER

@<TRIPOS>ATOM
      1 C         139.1834  139.9503  168.9600 C.ar    1  UNL1        0.2845
      2 N         139.8944  139.9029  170.2800 N.ar    1  UNL1       -0.1039
      3 N         138.9430  139.3494  171.2992 N.ar    1  UNL1       -0.1113
      4 C         137.6442  139.0548  170.6091 C.ar    1  UNL1        0.2275
      5 O         137.7928  139.4262  169.1634 O.2     1  UNL1       -0.4171
      6 C         135.7623  138.0486  172.2252 C.3     1  UNL1        0.0942
      7 C         136.2081  136.8554  172.6911 C.3     1  UNL1        0.0814
      8 N         136.4356  136.1267  172.9998 N.3     1  UNL1       -0.2723
      9 C         135.0918  136.6421  173.4224 C.3     1  UNL1        0.0721
     10 C         134.5988  137.9618  172.9072 C.3     1  UNL1        0.0179
     11 C         135.4496  138.7660  171.9694 C.3     1  UNL1        0.0129
     12 C         136.7934  138.2506  171.5469 C.3     1  UNL1        0.0179
     13 C         137.2864  136.9310  172.0621 C.3     1  UNL1        0.0721
     14 C         141.0370  141.7111  166.0395 C.ar    1  UNL1        0.1470
     15 C         140.2656  140.6583  165.3003 C.ar    1  UNL1        0.0408
     16 C         139.4773  139.8706  166.3044 C.ar    1  UNL1        0.0455
     17 C         139.7616  140.4365  167.6641 C.ar    1  UNL1        0.2001
     18 O         140.7256  141.5740  167.5004 O.2     1  UNL1       -0.4487
     19 C         144.3570  143.6502  165.0560 C.ar    1  UNL1        0.0208
     20 C         143.8008  144.7476  164.1978 C.ar    1  UNL1        0.0989
     21 N         142.3232  144.8327  163.9536 N.ar    1  UNL1       -0.2422
     22 C         141.4020  143.8206  164.5675 C.ar    1  UNL1        0.1019
     23 C         141.9583  142.7232  165.4256 C.ar    1  UNL1        0.0537
     24 C         143.4358  142.6381  165.6699 C.ar    1  UNL1        0.0062
@<TRIPOS>BOND
     1    19    20   ar
     2    20    21   ar
     3    21    22   ar
     4    22    23   ar
     5    23    14    1
     6    14    15   ar
     7    15    16   ar
     8    16    17   ar
     9    17     1    1
    10     1     2   ar
    11     2     3   ar
    12     3     4   ar
    13     4     6    1
    14     6     7    1
    15     7     8    1
    16     8     9    1
    17     9    10    1
    18    10    11    1
    19    11    12    1
    20    12    13    1
    21     4     5   ar
    22    17    18   ar
    23    23    24   ar
    24    24    19   ar
    25    18    14   ar
    26     5     1   ar
    27    11     6    1
    28    13     8    1
@<TRIPOS>MOLECULE
*****
 24 28 0 0 0
SMALL
GASTEIGER

@<TRIPOS>ATOM
      1 C         143.2724  143.0555  170.2055 C.ar    1  UNL1        0.2845
      2 N         144.6392  142.7305  169.6798 N.ar    1  UNL1       -0.1039
      3 N         145.6316  143.5890  170.4065 N.ar    1  UNL1       -0.1113
      4 C         144.8783  144.4445  171.3814 C.ar    1  UNL1        0.2275
      5 O         143.4202  144.1148  171.2572 O.2     1  UNL1       -0.4171
      6 C         146.4363  146.0819  172.8157 C.3     1  UNL1        0.0942
      7 C         147.7245  145.7012  172.6282 C.3     1  UNL1        0.0814
      8 N         148.5205  145.5075  172.5452 N.3     1  UNL1       -0.2723
      9 C         148.2046  146.6705  173.4382 C.3     1  UNL1        0.0721
     10 C         146.7800  147.0916  173.6456 C.3     1  UNL1        0.0179
     11 C         145.6712  146.3496  172.9600 C.3     1  UNL1        0.0129
     12 C         145.9871  145.1865  172.0670 C.3     1  UNL1        0.0179
     13 C         147.4117  144.7655  171.8596 C.3     1  UNL1        0.0721
     14 C         140.3024  141.3313  168.3969 C.ar    1  UNL1        0.1470
     15 C         139.7008  141.6081  169.7428 C.ar    1  UNL1        0.0408
     16 C         140.7402  142.2877  170.5842 C.ar    1  UNL1        0.0455
     17 C         141.9841  142.4309  169.7582 C.ar    1  UNL1        0.2001
     18 O         141.7135  141.8398  168.4064 O.2     1  UNL1       -0.4487
     19 C         138.0938  138.7683  166.3225 C.ar    1  UNL1        0.0208
     20 C         138.2363  139.3273  164.9378 C.ar    1  UNL1        0.0989
     21 N         139.0675  140.5543  164.7063 N.ar    1  UNL1       -0.2422
     22 C         139.7562  141.2223  165.8593 C.ar    1  UNL1        0.1019
     23 C         139.6137  140.6633  167.2439 C.ar    1  UNL1        0.0537
     24 C         138.7825  139.4364  167.4755 C.ar    1  UNL1        0.0062
@<TRIPOS>BOND
     1    19    20   ar
     2    20    21   ar
     3    21    22   ar
     4    22    23   ar
     5    23    14    1
     6    14    15   ar
     7    15    16   ar
     8    16    17   ar
     9    17     1    1
    10     1     2   ar
    11     2     3   ar
    12     3     4   ar
    13     4     6    1
    14     6     7    1
    15     7     8    1
    16     8     9    1
    17     9    10    1
    18    10    11    1
    19    11    12    1
    20    12    13    1
    21     4     5   ar
    22    17    18   ar
    23    23    24   ar
    24    24    19   ar
    25    18    14   ar
    26     5     1   ar
    27    11     6    1
    28    13     8    1
@<TRIPOS>MOLECULE
*****
 24 28 0 0 0
SMALL
GASTEIGER

@<TRIPOS>ATOM
      1 C         139.4735  139.4171  164.6821 C.ar    1  UNL1        0.2845
      2 N         138.7341  138.7072  165.7773 N.ar    1  UNL1       -0.1039
      3 N         138.9342  139.4792  167.0477 N.ar    1  UNL1       -0.1113
      4 C         139.7973  140.6662  166.7378 C.ar    1  UNL1        0.2275
      5 O         140.1306  140.6278  165.2758 O.2     1  UNL1       -0.4171
      6 C         140.3065  142.2189  168.8581 C.3     1  UNL1        0.0942
      7 C         139.8612  141.5725  169.9642 C.3     1  UNL1        0.0814
      8 N         139.6067  141.2193  170.6631 N.3     1  UNL1       -0.2723
      9 C         140.2502  142.5681  170.7909 C.3     1  UNL1        0.0721
     10 C         140.7428  143.2830  169.5677 C.3     1  UNL1        0.0179
     11 C         140.5918  142.6491  168.2166 C.3     1  UNL1        0.0129
     12 C         139.9483  141.3002  168.0888 C.3     1  UNL1        0.0179
     13 C         139.4557  140.5853  169.3120 C.3     1  UNL1        0.0721
     14 C         140.3300  138.6490  160.9752 C.ar    1  UNL1        0.1470
     15 C         138.9725  138.0222  161.0949 C.ar    1  UNL1        0.0408
     16 C         138.4865  138.2336  162.4981 C.ar    1  UNL1        0.0455
     17 C         139.5435  138.9911  163.2456 C.ar    1  UNL1        0.2001
     18 O         140.6829  139.2479  162.3044 O.2     1  UNL1       -0.4487
     19 C         141.4149  138.4978  157.1607 C.ar    1  UNL1        0.0208
     20 C         142.8937  138.7205  157.2775 C.ar    1  UNL1        0.0989
     21 N         143.5178  138.9193  158.6270 N.ar    1  UNL1       -0.2422
     22 C         142.6633  138.8955  159.8594 C.ar    1  UNL1        0.1019
     23 C         141.1845  138.6728  159.7426 C.ar    1  UNL1        0.0537
     24 C         140.5603  138.4740  158.3932 C.ar    1  UNL1        0.0062
@<TRIPOS>BOND
     1    19    20   ar
     2    20    21   ar
     3    21    22   ar
     4    22    23   ar
     5    23    14    1
     6    14    15   ar
     7    15    16   ar
     8    16    17   ar
     9    17     1    1
    10     1     2   ar
    11     2     3   ar
    12     3     4   ar
    13     4     6    1
    14     6     7    1
    15     7     8    1
    16     8     9    1
    17     9    10    1
    18    10    11    1
    19    11    12    1
    20    12    13    1
    21     4     5   ar
    22    17    18   ar
    23    23    24   ar
    24    24    19   ar
    25    18    14   ar
    26     5     1   ar
    27    11     6    1
    28    13     8    1
@<TRIPOS>MOLECULE
*****
 24 28 0 0 0
SMALL
GASTEIGER

@<TRIPOS>ATOM
      1 C         138.9334  139.3713  165.1668 C.ar    1  UNL1        0.2845
      2 N         137.9574  138.9454  166.2232 N.ar    1  UNL1       -0.1039
      3 N         138.6006  139.1586  167.5615 N.ar    1  UNL1       -0.1113
      4 C         139.9740  139.7162  167.3322 C.ar    1  UNL1        0.2275
      5 O         140.1797  139.8477  165.8522 O.2     1  UNL1       -0.4171
      6 C         141.3415  140.1892  169.5843 C.3     1  UNL1        0.0942
      7 C         140.4851  140.7320  170.4852 C.3     1  UNL1        0.0814
      8 N         140.0036  141.0637  171.0649 N.3     1  UNL1       -0.2723
      9 C         141.4389  140.8370  171.4368 C.3     1  UNL1        0.0721
     10 C         142.3860  140.2368  170.4404 C.3     1  UNL1        0.0179
     11 C         141.8977  139.8631  169.0722 C.3     1  UNL1        0.0129
     12 C         140.4623  140.0898  168.7004 C.3     1  UNL1        0.0179
     13 C         139.5153  140.6901  169.6967 C.3     1  UNL1        0.0721
     14 C         138.4134  140.0087  161.3736 C.ar    1  UNL1        0.1470
     15 C         138.2859  138.5155  161.4367 C.ar    1  UNL1        0.0408
     16 C         138.4652  138.0950  162.8653 C.ar    1  UNL1        0.0455
     17 C         138.7035  139.3283  163.6851 C.ar    1  UNL1        0.2001
     18 O         138.6715  140.5111  162.7632 O.2     1  UNL1       -0.4487
     19 C         137.7159  141.0834  157.6174 C.ar    1  UNL1        0.0208
     20 C         138.0802  142.5376  157.6663 C.ar    1  UNL1        0.0989
     21 N         138.5557  143.1489  158.9510 N.ar    1  UNL1       -0.2422
     22 C         138.6667  142.3059  160.1867 C.ar    1  UNL1        0.1019
     23 C         138.3024  140.8517  160.1378 C.ar    1  UNL1        0.0537
     24 C         137.8269  140.2404  158.8532 C.ar    1  UNL1        0.0062
@<TRIPOS>BOND
     1    19    20   ar
     2    20    21   ar
     3    21    22   ar
     4    22    23   ar
     5    23    14    1
     6    14    15   ar
     7    15    16   ar
     8    16    17   ar
     9    17     1    1
    10     1     2   ar
    11     2     3   ar
    12     3     4   ar
    13     4     6    1
    14     6     7    1
    15     7     8    1
    16     8     9    1
    17     9    10    1
    18    10    11    1
    19    11    12    1
    20    12    13    1
    21     4     5   ar
    22    17    18   ar
    23    23    24   ar
    24    24    19   ar
    25    18    14   ar
    26     5     1   ar
    27    11     6    1
    28    13     8    1
@<TRIPOS>MOLECULE
*****
 24 28 0 0 0
SMALL
GASTEIGER

@<TRIPOS>ATOM
      1 C         139.8638  139.7585  165.7645 C.ar    1  UNL1        0.2845
      2 N         139.0736  139.6464  167.0346 N.ar    1  UNL1       -0.1039
      3 N         139.8504  140.3228  168.1250 N.ar    1  UNL1       -0.1113
      4 C         141.1207  140.8530  167.5290 C.ar    1  UNL1        0.2275
      5 O         141.1290  140.5042  166.0701 O.2     1  UNL1       -0.4171
      6 C         142.6975  142.1155  169.2854 C.3     1  UNL1        0.0942
      7 C         141.9476  143.0492  169.9223 C.3     1  UNL1        0.0814
      8 N         141.5334  143.6287  170.3352 N.3     1  UNL1       -0.2723
      9 C         142.9838  143.4678  170.6820 C.3     1  UNL1        0.0721
     10 C         143.8132  142.4353  169.9778 C.3     1  UNL1        0.0179
     11 C         143.1921  141.5637  168.9268 C.3     1  UNL1        0.0129
     12 C         141.7417  141.7246  168.5800 C.3     1  UNL1        0.0179
     13 C         140.9123  142.7571  169.2842 C.3     1  UNL1        0.0721
     14 C         139.0578  139.0301  162.0383 C.ar    1  UNL1        0.1470
     15 C         138.6187  137.7500  162.6854 C.ar    1  UNL1        0.0408
     16 C         138.8673  137.8671  164.1600 C.ar    1  UNL1        0.0455
     17 C         139.4599  139.2195  164.4243 C.ar    1  UNL1        0.2001
     18 O         139.5777  139.9383  163.1130 O.2     1  UNL1       -0.4487
     19 C         140.0968  139.3759  158.2237 C.ar    1  UNL1        0.0208
     20 C         138.8517  139.9791  157.6443 C.ar    1  UNL1        0.0989
     21 N         137.6752  140.2660  158.5297 N.ar    1  UNL1       -0.2422
     22 C         137.7440  139.9496  159.9942 C.ar    1  UNL1        0.1019
     23 C         138.9891  139.3464  160.5736 C.ar    1  UNL1        0.0537
     24 C         140.1655  139.0595  159.6884 C.ar    1  UNL1        0.0062
@<TRIPOS>BOND
     1    19    20   ar
     2    20    21   ar
     3    21    22   ar
     4    22    23   ar
     5    23    14    1
     6    14    15   ar
     7    15    16   ar
     8    16    17   ar
     9    17     1    1
    10     1     2   ar
    11     2     3   ar
    12     3     4   ar
    13     4     6    1
    14     6     7    1
    15     7     8    1
    16     8     9    1
    17     9    10    1
    18    10    11    1
    19    11    12    1
    20    12    13    1
    21     4     5   ar
    22    17    18   ar
    23    23    24   ar
    24    24    19   ar
    25    18    14   ar
    26     5     1   ar
    27    11     6    1
    28    13     8    1
@<TRIPOS>MOLECULE
*****
 24 28 0 0 0
SMALL
GASTEIGER

@<TRIPOS>ATOM
      1 C         140.7303  144.9816  160.9343 C.ar    1  UNL1        0.2845
      2 N         142.0321  144.7609  160.2224 N.ar    1  UNL1       -0.1039
      3 N         141.8719  145.2308  158.8070 N.ar    1  UNL1       -0.1113
      4 C         140.4711  145.7419  158.6440 C.ar    1  UNL1        0.2275
      5 O         139.7656  145.5878  159.9587 O.2     1  UNL1       -0.4171
      6 C         139.9270  146.6464  156.1840 C.3     1  UNL1        0.0942
      7 C         140.8517  146.1302  155.3365 C.3     1  UNL1        0.0814
      8 N         141.3901  145.8416  154.7845 N.3     1  UNL1       -0.2723
      9 C         140.3156  146.7476  154.2605 C.3     1  UNL1        0.0721
     10 C         139.2930  147.3184  155.1977 C.3     1  UNL1        0.0179
     11 C         139.3448  146.9832  156.6589 C.3     1  UNL1        0.0129
     12 C         140.4193  146.0771  157.1828 C.3     1  UNL1        0.0179
     13 C         141.4419  145.5063  156.2456 C.3     1  UNL1        0.0721
     14 C         140.6171  143.7200  164.6032 C.ar    1  UNL1        0.1470
     15 C         139.3875  144.5777  164.5535 C.ar    1  UNL1        0.0408
     16 C         139.2803  145.1546  163.1731 C.ar    1  UNL1        0.0455
     17 C         140.4436  144.6536  162.3696 C.ar    1  UNL1        0.2001
     18 O         141.2698  143.7669  163.2534 O.2     1  UNL1       -0.4487
     19 C         140.7765  142.1341  168.2377 C.ar    1  UNL1        0.0208
     20 C         142.0895  141.4116  168.1743 C.ar    1  UNL1        0.0989
     21 N         142.9117  141.4586  166.9206 N.ar    1  UNL1       -0.2422
     22 C         142.4209  142.2280  165.7303 C.ar    1  UNL1        0.1019
     23 C         141.1079  142.9505  165.7936 C.ar    1  UNL1        0.0537
     24 C         140.2857  142.9036  167.0473 C.ar    1  UNL1        0.0062
@<TRIPOS>BOND
     1    19    20   ar
     2    20    21   ar
     3    21    22   ar
     4    22    23   ar
     5    23    14    1
     6    14    15   ar
     7    15    16   ar
     8    16    17   ar
     9    17     1    1
    10     1     2   ar
    11     2     3   ar
    12     3     4   ar
    13     4     6    1
    14     6     7    1
    15     7     8    1
    16     8     9    1
    17     9    10    1
    18    10    11    1
    19    11    12    1
    20    12    13    1
    21     4     5   ar
    22    17    18   ar
    23    23    24   ar
    24    24    19   ar
    25    18    14   ar
    26     5     1   ar
    27    11     6    1
    28    13     8    1
@<TRIPOS>MOLECULE
*****
 24 28 0 0 0
SMALL
GASTEIGER

@<TRIPOS>ATOM
      1 C         138.6965  141.7845  163.5563 C.ar    1  UNL1        0.2845
      2 N         137.4022  142.2633  162.9685 N.ar    1  UNL1       -0.1039
      3 N         137.7063  142.9307  161.6600 N.ar    1  UNL1       -0.1113
      4 C         139.1885  142.8644  161.4392 C.ar    1  UNL1        0.2275
      5 O         139.8004  142.1560  162.6112 O.2     1  UNL1       -0.4171
      6 C         139.9950  143.9968  159.1516 C.3     1  UNL1        0.0942
      7 C         140.9313  144.9297  159.4562 C.3     1  UNL1        0.0814
      8 N         141.5033  145.5061  159.5919 N.3     1  UNL1       -0.2723
      9 C         141.1076  145.2795  158.1629 C.3     1  UNL1        0.0721
     10 C         140.0722  144.2479  157.8260 C.3     1  UNL1        0.0179
     11 C         139.4325  143.4428  158.9181 C.3     1  UNL1        0.0129
     12 C         139.8282  143.6694  160.3471 C.3     1  UNL1        0.0179
     13 C         140.8636  144.7011  160.6840 C.3     1  UNL1        0.0721
     14 C         139.5797  140.4805  167.1039 C.ar    1  UNL1        0.1470
     15 C         138.6354  139.4155  166.6304 C.ar    1  UNL1        0.0408
     16 C         138.1897  139.7744  165.2439 C.ar    1  UNL1        0.0455
     17 C         138.8584  141.0611  164.8604 C.ar    1  UNL1        0.2001
     18 O         139.7175  141.4976  166.0100 O.2     1  UNL1       -0.4487
     19 C         142.4220  140.2815  169.8664 C.ar    1  UNL1        0.0208
     20 C         141.6377  140.6030  171.1039 C.ar    1  UNL1        0.0989
     21 N         140.1672  140.8836  171.0080 N.ar    1  UNL1       -0.2422
     22 C         139.4813  140.8428  169.6747 C.ar    1  UNL1        0.1019
     23 C         140.2657  140.5213  168.4372 C.ar    1  UNL1        0.0537
     24 C         141.7360  140.2407  168.5330 C.ar    1  UNL1        0.0062
@<TRIPOS>BOND
     1    19    20   ar
     2    20    21   ar
     3    21    22   ar
     4    22    23   ar
     5    23    14    1
     6    14    15   ar
     7    15    16   ar
     8    16    17   ar
     9    17     1    1
    10     1     2   ar
    11     2     3   ar
    12     3     4   ar
    13     4     6    1
    14     6     7    1
    15     7     8    1
    16     8     9    1
    17     9    10    1
    18    10    11    1
    19    11    12    1
    20    12    13    1
    21     4     5   ar
    22    17    18   ar
    23    23    24   ar
    24    24    19   ar
    25    18    14   ar
    26     5     1   ar
    27    11     6    1
    28    13     8    1
@<TRIPOS>MOLECULE
*****
 24 28 0 0 0
SMALL
GASTEIGER

@<TRIPOS>ATOM
      1 C         142.5605  138.9635  164.5451 C.ar    1  UNL1        0.2845
      2 N         143.5820  138.6988  165.6111 N.ar    1  UNL1       -0.1039
      3 N         142.9571  139.0086  166.9390 N.ar    1  UNL1       -0.1113
      4 C         141.5493  139.4647  166.6938 C.ar    1  UNL1        0.2275
      5 O         141.3042  139.4369  165.2142 O.2     1  UNL1       -0.4171
      6 C         140.2066  140.0839  168.9252 C.3     1  UNL1        0.0942
      7 C         141.0933  140.1101  169.9512 C.3     1  UNL1        0.0814
      8 N         141.5935  140.1378  170.6047 N.3     1  UNL1       -0.2723
      9 C         140.1444  140.4310  170.8582 C.3     1  UNL1        0.0721
     10 C         139.1637  140.4021  169.7237 C.3     1  UNL1        0.0179
     11 C         139.6320  140.0800  168.3355 C.3     1  UNL1        0.0129
     12 C         141.0810  139.7868  168.0819 C.3     1  UNL1        0.0179
     13 C         142.0618  139.8158  169.2165 C.3     1  UNL1        0.0721
     14 C         142.3241  138.4922  160.6996 C.ar    1  UNL1        0.1470
     15 C         143.8107  138.5336  160.8957 C.ar    1  UNL1        0.0408
     16 C         144.0801  138.7152  162.3601 C.ar    1  UNL1        0.0455
     17 C         142.7601  138.7860  163.0690 C.ar    1  UNL1        0.2001
     18 O         141.6748  138.6482  162.0428 O.2     1  UNL1       -0.4487
     19 C         141.6572  137.7050  156.8675 C.ar    1  UNL1        0.0208
     20 C         140.1873  137.9883  156.7715 C.ar    1  UNL1        0.0989
     21 N         139.4297  138.4396  157.9850 N.ar    1  UNL1       -0.2422
     22 C         140.1420  138.6075  159.2943 C.ar    1  UNL1        0.1019
     23 C         141.6119  138.3242  159.3903 C.ar    1  UNL1        0.0537
     24 C         142.3694  137.8729  158.1768 C.ar    1  UNL1        0.0062
@<TRIPOS>BOND
     1    19    20   ar
     2    20    21   ar
     3    21    22   ar
     4    22    23   ar
     5    23    14    1
     6    14    15   ar
     7    15    16   ar
     8    16    17   ar
     9    17     1    1
    10     1     2   ar
    11     2     3   ar
    12     3     4   ar
    13     4     6    1
    14     6     7    1
    15     7     8    1
    16     8     9    1
    17     9    10    1
    18    10    11    1
    19    11    12    1
    20    12    13    1
    21     4     5   ar
    22    17    18   ar
    23    23    24   ar
    24    24    19   ar
    25    18    14   ar
    26     5     1   ar
    27    11     6    1
    28    13     8    1
