@<TRIPOS>MOLECULE
*****
 35 39 0 0 0
SMALL
GASTEIGER

@<TRIPOS>ATOM
      1 C         139.2852  139.9678  163.2031 C.ar    1  UNL1        0.0878
      2 C         138.8060  138.9036  164.1454 C.ar    1  UNL1        0.1543
      3 F         138.1860  137.6486  163.6066 F       1  UNL1       -0.2028
      4 C         138.9468  139.0946  165.6265 C.ar    1  UNL1        0.0356
      5 C         139.5669  140.3497  166.1653 C.ar    1  UNL1        0.0580
      6 C         139.7077  140.5406  167.6465 C.ar    1  UNL1        0.1996
      7 O         139.2285  139.4764  168.5887 O.2     1  UNL1       -0.2864
      8 C         140.3277  141.7956  168.1853 C.ar    1  UNL1        0.0701
      9 C         140.8069  142.8598  167.2429 C.ar    1  UNL1        0.0801
     10 N         140.6661  142.6689  165.7618 N.ar    1  UNL1       -0.3270
     11 C         140.0461  141.4138  165.2230 C.ar    1  UNL1        0.0750
     12 C         139.9052  141.2229  163.7419 C.ar    1  UNL1        0.0890
     13 CL        140.3844  142.2870  162.7996 Cl      1  UNL1       -0.0794
     14 C         138.3206  139.9237  159.4437 C.3     1  UNL1        0.0929
     15 C         139.5346  139.0426  159.4418 C.3     1  UNL1        0.0427
     16 C         140.0437  138.9519  160.8498 C.3     1  UNL1        0.0927
     17 N         139.1444  139.7769  161.7219 N.pl3   1  UNL1       -0.3033
     18 C         138.0794  140.3775  160.8529 C.3     1  UNL1        0.1104
     19 O         138.6665  142.6027  158.1385 O.2     1  UNL1       -0.2750
     20 C         137.6660  141.6266  157.5939 C.2     1  UNL1        0.2245
     21 N         137.4931  140.2871  158.2465 N.am    1  UNL1       -0.3042
     22 H         136.8365  139.6465  157.8891 H       1  UNL1        0.1494
     23 C         136.8385  141.9900  156.3968 C.3     1  UNL1        0.1113
     24 C         136.0499  140.9335  155.6814 C.3     1  UNL1        0.1371
     25 N         134.6800  140.5625  156.1669 N.ar    1  UNL1       -0.2489
     26 C         133.3816  141.0801  155.6228 C.ar    1  UNL1        0.0967
     27 C         132.2671  140.4462  156.4014 C.ar    1  UNL1        0.0427
     28 C         132.8768  139.5369  157.4267 C.ar    1  UNL1        0.1217
     29 N         134.3680  139.6087  157.2818 N.ar    1  UNL1       -0.1676
     30 C         140.4686  141.9866  169.6664 C.2     1  UNL1        0.0774
     31 O         141.8323  142.0732  170.2851 O.co2   1  UNL1       -0.5444
     32 O         139.2457  142.0909  170.5288 O.co2   1  UNL1       -0.5444
     33 C         141.1453  143.7330  164.8196 C.3     1  UNL1        0.0857
     34 C         140.8717  144.9516  163.9887 C.3     1  UNL1        0.0245
     35 C         142.2488  144.3577  164.0183 C.3     1  UNL1        0.0245
@<TRIPOS>UNITY_ATOM_ATTR
31 1
charge -1
@<TRIPOS>BOND
     1    19    20    2
     2    20    23    1
     3    23    24    1
     4    24    25    1
     5    25    26   ar
     6    26    27   ar
     7    27    28   ar
     8    28    29   ar
     9    20    21   am
    10    21    14    1
    11    14    15    1
    12    15    16    1
    13    16    17    1
    14    17     1    1
    15     1     2   ar
    16     2     3    1
    17     2     4   ar
    18     4     5   ar
    19     5     6   ar
    20     6     7    2
    21     6     8   ar
    22     8    30    1
    23    30    31   ar
    24    30    32   ar
    25     8     9   ar
    26     9    10   ar
    27    10    33    1
    28    33    34    1
    29    34    35    1
    30    10    11   ar
    31    11    12   ar
    32    12    13    1
    33    17    18    1
    34    29    25   ar
    35    18    14    1
    36    12     1   ar
    37    11     5   ar
    38    35    33    1
    39    21    22    1
@<TRIPOS>MOLECULE
*****
 35 39 0 0 0
SMALL
GASTEIGER

@<TRIPOS>ATOM
      1 C         142.9394  139.3263  164.2459 C.ar    1  UNL1        0.0878
      2 C         143.9643  138.9066  165.2576 C.ar    1  UNL1        0.1543
      3 F         145.2981  138.3912  164.8046 F       1  UNL1       -0.2028
      4 C         143.6553  139.0024  166.7223 C.ar    1  UNL1        0.0356
      5 C         142.3215  139.5178  167.1753 C.ar    1  UNL1        0.0580
      6 C         142.0126  139.6136  168.6401 C.ar    1  UNL1        0.1996
      7 O         143.0374  139.1940  169.6517 O.2     1  UNL1       -0.2864
      8 C         140.6787  140.1291  169.0931 C.ar    1  UNL1        0.0701
      9 C         139.6538  140.5487  168.0813 C.ar    1  UNL1        0.0801
     10 N         139.9628  140.4529  166.6167 N.ar    1  UNL1       -0.3270
     11 C         141.2966  139.9375  166.1636 C.ar    1  UNL1        0.0750
     12 C         141.6056  139.8417  164.6990 C.ar    1  UNL1        0.0890
     13 CL        140.5807  140.2614  163.6872 Cl      1  UNL1       -0.0794
     14 C         143.3631  138.4262  160.4941 C.3     1  UNL1        0.0929
     15 C         144.0842  139.7399  160.5603 C.3     1  UNL1        0.0427
     16 C         144.0133  140.2369  161.9738 C.3     1  UNL1        0.0927
     17 N         143.2483  139.2305  162.7812 N.pl3   1  UNL1       -0.3033
     18 C         142.8465  138.1114  161.8667 C.3     1  UNL1        0.1104
     19 O         141.4613  139.2769  158.3355 O.2     1  UNL1       -0.2750
     20 C         142.2383  138.0019  158.1909 C.2     1  UNL1        0.2245
     21 N         143.1892  137.5766  159.2702 N.am    1  UNL1       -0.3042
     22 H         143.6991  136.7398  159.1754 H       1  UNL1        0.1494
     23 C         142.0643  137.1523  156.9670 C.3     1  UNL1        0.1113
     24 C         143.1037  136.1319  156.6084 C.3     1  UNL1        0.1371
     25 N         142.7032  134.7071  156.3643 N.ar    1  UNL1       -0.2489
     26 C         141.6480  134.2397  155.4063 C.ar    1  UNL1        0.0967
     27 C         141.5802  132.7434  155.4853 C.ar    1  UNL1        0.0427
     28 C         142.5936  132.2860  156.4921 C.ar    1  UNL1        0.1217
     29 N         143.2876  133.4996  157.0354 N.ar    1  UNL1       -0.1676
     30 C         140.3698  140.2248  170.5578 C.2     1  UNL1        0.0774
     31 O         141.1516  141.1624  171.4294 O.co2   1  UNL1       -0.5444
     32 O         139.2790  139.3831  171.1508 O.co2   1  UNL1       -0.5444
     33 C         138.9379  140.8726  165.6050 C.3     1  UNL1        0.0857
     34 C         138.2358  141.9544  164.8390 C.3     1  UNL1        0.0245
     35 C         137.8649  140.5177  164.6188 C.3     1  UNL1        0.0245
@<TRIPOS>UNITY_ATOM_ATTR
31 1
charge -1
@<TRIPOS>BOND
     1    19    20    2
     2    20    23    1
     3    23    24    1
     4    24    25    1
     5    25    26   ar
     6    26    27   ar
     7    27    28   ar
     8    28    29   ar
     9    20    21   am
    10    21    14    1
    11    14    15    1
    12    15    16    1
    13    16    17    1
    14    17     1    1
    15     1     2   ar
    16     2     3    1
    17     2     4   ar
    18     4     5   ar
    19     5     6   ar
    20     6     7    2
    21     6     8   ar
    22     8    30    1
    23    30    31   ar
    24    30    32   ar
    25     8     9   ar
    26     9    10   ar
    27    10    33    1
    28    33    34    1
    29    34    35    1
    30    10    11   ar
    31    11    12   ar
    32    12    13    1
    33    17    18    1
    34    29    25   ar
    35    18    14    1
    36    12     1   ar
    37    11     5   ar
    38    35    33    1
    39    21    22    1
@<TRIPOS>MOLECULE
*****
 35 39 0 0 0
SMALL
GASTEIGER

@<TRIPOS>ATOM
      1 C         140.2961  139.1714  163.1902 C.ar    1  UNL1        0.0878
      2 C         139.1629  138.3470  163.7253 C.ar    1  UNL1        0.1543
      3 F         138.4461  137.3840  162.8261 F       1  UNL1       -0.2028
      4 C         138.7466  138.4858  165.1596 C.ar    1  UNL1        0.0356
      5 C         139.4635  139.4488  166.0589 C.ar    1  UNL1        0.0580
      6 C         139.0471  139.5876  167.4933 C.ar    1  UNL1        0.1996
      7 O         137.9140  138.7633  168.0284 O.2     1  UNL1       -0.2864
      8 C         139.7640  140.5506  168.3925 C.ar    1  UNL1        0.0701
      9 C         140.8973  141.3749  167.8573 C.ar    1  UNL1        0.0801
     10 N         141.3136  141.2362  166.4230 N.ar    1  UNL1       -0.3270
     11 C         140.5967  140.2731  165.5238 C.ar    1  UNL1        0.0750
     12 C         141.0130  140.1344  164.0894 C.ar    1  UNL1        0.0890
     13 CL        142.1462  140.9587  163.5542 Cl      1  UNL1       -0.0794
     14 C         141.8694  138.3127  159.7473 C.3     1  UNL1        0.0929
     15 C         140.8370  139.3256  159.3497 C.3     1  UNL1        0.0427
     16 C         140.1219  139.7705  160.5910 C.3     1  UNL1        0.0927
     17 N         140.7125  139.0326  161.7558 N.pl3   1  UNL1       -0.3033
     18 C         141.7925  138.1316  161.2344 C.3     1  UNL1        0.1104
     19 O         140.8627  137.1826  157.1571 O.2     1  UNL1       -0.2750
     20 C         142.3098  137.0400  157.5255 C.2     1  UNL1        0.2245
     21 N         142.8131  137.6051  158.8207 N.am    1  UNL1       -0.3042
     22 H         143.7629  137.5115  159.0625 H       1  UNL1        0.1494
     23 C         143.2535  136.3324  156.5989 C.3     1  UNL1        0.1113
     24 C         142.9298  134.9520  156.1093 C.3     1  UNL1        0.1371
     25 N         143.7564  133.7838  156.5587 N.ar    1  UNL1       -0.2489
     26 C         144.1077  132.5824  155.7323 C.ar    1  UNL1        0.0967
     27 C         144.9453  131.6680  156.5764 C.ar    1  UNL1        0.0427
     28 C         145.1116  132.3044  157.9244 C.ar    1  UNL1        0.1217
     29 N         144.3768  133.6120  157.9135 N.ar    1  UNL1       -0.1676
     30 C         139.3477  140.6894  169.8269 C.2     1  UNL1        0.0774
     31 O         139.0408  142.0449  170.3910 O.co2   1  UNL1       -0.5444
     32 O         139.2383  139.4725  170.6972 O.co2   1  UNL1       -0.5444
     33 C         142.4467  142.0605  165.8879 C.3     1  UNL1        0.0857
     34 C         143.9143  142.2447  165.6380 C.3     1  UNL1        0.0245
     35 C         142.9420  143.3040  165.2110 C.3     1  UNL1        0.0245
@<TRIPOS>UNITY_ATOM_ATTR
31 1
charge -1
@<TRIPOS>BOND
     1    19    20    2
     2    20    23    1
     3    23    24    1
     4    24    25    1
     5    25    26   ar
     6    26    27   ar
     7    27    28   ar
     8    28    29   ar
     9    20    21   am
    10    21    14    1
    11    14    15    1
    12    15    16    1
    13    16    17    1
    14    17     1    1
    15     1     2   ar
    16     2     3    1
    17     2     4   ar
    18     4     5   ar
    19     5     6   ar
    20     6     7    2
    21     6     8   ar
    22     8    30    1
    23    30    31   ar
    24    30    32   ar
    25     8     9   ar
    26     9    10   ar
    27    10    33    1
    28    33    34    1
    29    34    35    1
    30    10    11   ar
    31    11    12   ar
    32    12    13    1
    33    17    18    1
    34    29    25   ar
    35    18    14    1
    36    12     1   ar
    37    11     5   ar
    38    35    33    1
    39    21    22    1
@<TRIPOS>MOLECULE
*****
 35 39 0 0 0
SMALL
GASTEIGER

@<TRIPOS>ATOM
      1 C         142.9651  141.2083  164.6676 C.ar    1  UNL1        0.0878
      2 C         143.8788  142.0827  165.4740 C.ar    1  UNL1        0.1543
      3 F         145.1620  142.5793  164.8767 F       1  UNL1       -0.2028
      4 C         143.5093  142.4606  166.8778 C.ar    1  UNL1        0.0356
      5 C         142.2261  141.9641  167.4751 C.ar    1  UNL1        0.0580
      6 C         141.8566  142.3420  168.8790 C.ar    1  UNL1        0.1996
      7 O         142.7703  143.2165  169.6854 O.2     1  UNL1       -0.2864
      8 C         140.5734  141.8455  169.4763 C.ar    1  UNL1        0.0701
      9 C         139.6597  140.9710  168.6698 C.ar    1  UNL1        0.0801
     10 N         140.0292  140.5931  167.2660 N.ar    1  UNL1       -0.3270
     11 C         141.3124  141.0896  166.6687 C.ar    1  UNL1        0.0750
     12 C         141.6819  140.7117  165.2649 C.ar    1  UNL1        0.0890
     13 CL        140.7681  139.8372  164.4584 Cl      1  UNL1       -0.0794
     14 C         143.7543  140.9479  160.8761 C.3     1  UNL1        0.0929
     15 C         144.0519  139.5497  161.3309 C.3     1  UNL1        0.0427
     16 C         143.7925  139.4771  162.8065 C.3     1  UNL1        0.0927
     17 N         143.3346  140.8303  163.2637 N.pl3   1  UNL1       -0.3033
     18 C         143.3110  141.7393  162.0707 C.3     1  UNL1        0.1104
     19 O         141.7606  140.1215  158.7923 O.2     1  UNL1       -0.2750
     20 C         142.8814  141.0508  158.4312 C.2     1  UNL1        0.2245
     21 N         143.8783  141.4639  159.4732 N.am    1  UNL1       -0.3042
     22 H         144.6139  142.0738  159.2362 H       1  UNL1        0.1494
     23 C         143.0054  141.5668  157.0283 C.3     1  UNL1        0.1113
     24 C         144.1141  141.0774  156.1443 C.3     1  UNL1        0.1371
     25 N         145.4995  141.6298  156.3034 N.ar    1  UNL1       -0.2489
     26 C         146.6558  141.3902  155.3785 C.ar    1  UNL1        0.0967
     27 C         147.8428  142.1312  155.9188 C.ar    1  UNL1        0.0427
     28 C         147.4201  142.8287  157.1776 C.ar    1  UNL1        0.1217
     29 N         145.9720  142.5189  157.4153 N.ar    1  UNL1       -0.1676
     30 C         140.2039  142.2234  170.8801 C.2     1  UNL1        0.0774
     31 O         140.7650  141.4511  172.0371 O.co2   1  UNL1       -0.5444
     32 O         139.2732  143.3736  171.1269 O.co2   1  UNL1       -0.5444
     33 C         139.1154  139.7186  166.4596 C.3     1  UNL1        0.0857
     34 C         138.5461  138.3642  166.1571 C.3     1  UNL1        0.0245
     35 C         138.1022  139.5583  165.3653 C.3     1  UNL1        0.0245
@<TRIPOS>UNITY_ATOM_ATTR
31 1
charge -1
@<TRIPOS>BOND
     1    19    20    2
     2    20    23    1
     3    23    24    1
     4    24    25    1
     5    25    26   ar
     6    26    27   ar
     7    27    28   ar
     8    28    29   ar
     9    20    21   am
    10    21    14    1
    11    14    15    1
    12    15    16    1
    13    16    17    1
    14    17     1    1
    15     1     2   ar
    16     2     3    1
    17     2     4   ar
    18     4     5   ar
    19     5     6   ar
    20     6     7    2
    21     6     8   ar
    22     8    30    1
    23    30    31   ar
    24    30    32   ar
    25     8     9   ar
    26     9    10   ar
    27    10    33    1
    28    33    34    1
    29    34    35    1
    30    10    11   ar
    31    11    12   ar
    32    12    13    1
    33    17    18    1
    34    29    25   ar
    35    18    14    1
    36    12     1   ar
    37    11     5   ar
    38    35    33    1
    39    21    22    1
@<TRIPOS>MOLECULE
*****
 35 39 0 0 0
SMALL
GASTEIGER

@<TRIPOS>ATOM
      1 C         142.0559  142.4472  163.8608 C.ar    1  UNL1        0.0878
      2 C         143.1471  143.2363  164.5215 C.ar    1  UNL1        0.1543
      3 F         143.9444  144.2263  163.7251 F       1  UNL1       -0.2028
      4 C         143.4410  143.0354  165.9786 C.ar    1  UNL1        0.0356
      5 C         142.6437  142.0454  166.7750 C.ar    1  UNL1        0.0580
      6 C         142.9377  141.8445  168.2322 C.ar    1  UNL1        0.1996
      7 O         144.0289  142.6336  168.8929 O.2     1  UNL1       -0.2864
      8 C         142.1404  140.8545  169.0286 C.ar    1  UNL1        0.0701
      9 C         141.0491  140.0654  168.3678 C.ar    1  UNL1        0.0801
     10 N         140.7552  140.2663  166.9107 N.ar    1  UNL1       -0.3270
     11 C         141.5525  141.2563  166.1143 C.ar    1  UNL1        0.0750
     12 C         141.2586  141.4572  164.6572 C.ar    1  UNL1        0.0890
     13 CL        140.1674  140.6681  163.9964 Cl      1  UNL1       -0.0794
     14 C         140.8747  143.5446  160.3300 C.3     1  UNL1        0.0929
     15 C         141.7445  142.3700  159.9926 C.3     1  UNL1        0.0427
     16 C         142.2928  141.8160  161.2742 C.3     1  UNL1        0.0927
     17 N         141.7619  142.6481  162.4036 N.pl3   1  UNL1       -0.3033
     18 C         140.8855  143.7165  161.8201 C.3     1  UNL1        0.1104
     19 O         142.3580  145.4933  158.5973 O.2     1  UNL1       -0.2750
     20 C         140.8673  145.3719  158.4832 C.2     1  UNL1        0.2245
     21 N         140.1256  144.3975  159.3495 N.am    1  UNL1       -0.3042
     22 H         139.1472  144.3179  159.2746 H       1  UNL1        0.1494
     23 C         140.1182  146.2248  157.5027 C.3     1  UNL1        0.1113
     24 C         139.7940  145.6912  156.1388 C.3     1  UNL1        0.1371
     25 N         138.6945  144.6851  155.9689 N.ar    1  UNL1       -0.2489
     26 C         137.5390  144.7938  155.0187 C.ar    1  UNL1        0.0967
     27 C         136.6879  143.5695  155.1820 C.ar    1  UNL1        0.0427
     28 C         137.3174  142.7042  156.2331 C.ar    1  UNL1        0.1217
     29 N         138.5575  143.3937  156.7195 N.ar    1  UNL1       -0.1676
     30 C         142.4343  140.6535  170.4857 C.2     1  UNL1        0.0774
     31 O         141.6963  141.4545  171.5171 O.co2   1  UNL1       -0.5444
     32 O         143.4662  139.6516  170.9115 O.co2   1  UNL1       -0.5444
     33 C         139.6640  139.4772  166.2499 C.3     1  UNL1        0.0857
     34 C         138.2088  139.2715  165.9499 C.3     1  UNL1        0.0245
     35 C         139.2292  138.3162  165.4056 C.3     1  UNL1        0.0245
@<TRIPOS>UNITY_ATOM_ATTR
31 1
charge -1
@<TRIPOS>BOND
     1    19    20    2
     2    20    23    1
     3    23    24    1
     4    24    25    1
     5    25    26   ar
     6    26    27   ar
     7    27    28   ar
     8    28    29   ar
     9    20    21   am
    10    21    14    1
    11    14    15    1
    12    15    16    1
    13    16    17    1
    14    17     1    1
    15     1     2   ar
    16     2     3    1
    17     2     4   ar
    18     4     5   ar
    19     5     6   ar
    20     6     7    2
    21     6     8   ar
    22     8    30    1
    23    30    31   ar
    24    30    32   ar
    25     8     9   ar
    26     9    10   ar
    27    10    33    1
    28    33    34    1
    29    34    35    1
    30    10    11   ar
    31    11    12   ar
    32    12    13    1
    33    17    18    1
    34    29    25   ar
    35    18    14    1
    36    12     1   ar
    37    11     5   ar
    38    35    33    1
    39    21    22    1
@<TRIPOS>MOLECULE
*****
 35 39 0 0 0
SMALL
GASTEIGER

@<TRIPOS>ATOM
      1 C         142.7985  141.5379  164.2641 C.ar    1  UNL1        0.0878
      2 C         143.8250  142.3031  165.0455 C.ar    1  UNL1        0.1543
      3 F         145.0417  142.8454  164.3559 F       1  UNL1       -0.2028
      4 C         143.6348  142.5260  166.5166 C.ar    1  UNL1        0.0356
      5 C         142.4182  141.9836  167.2062 C.ar    1  UNL1        0.0580
      6 C         142.2280  142.2065  168.6774 C.ar    1  UNL1        0.1996
      7 O         143.2545  142.9717  169.4588 O.2     1  UNL1       -0.2864
      8 C         141.0113  141.6642  169.3670 C.ar    1  UNL1        0.0701
      9 C         139.9848  140.8989  168.5855 C.ar    1  UNL1        0.0801
     10 N         140.1750  140.6761  167.1144 N.ar    1  UNL1       -0.3270
     11 C         141.3917  141.2184  166.4248 C.ar    1  UNL1        0.0750
     12 C         141.5818  140.9955  164.9537 C.ar    1  UNL1        0.0890
     13 CL        140.5553  140.2303  164.1722 Cl      1  UNL1       -0.0794
     14 C         143.4130  140.2446  160.6564 C.3     1  UNL1        0.0929
     15 C         143.1495  141.6992  160.4019 C.3     1  UNL1        0.0427
     16 C         142.8873  142.3607  161.7224 C.3     1  UNL1        0.0927
     17 N         142.9886  141.3150  162.7929 N.pl3   1  UNL1       -0.3033
     18 C         143.3135  140.0071  162.1341 C.3     1  UNL1        0.1104
     19 O         141.1906  139.0093  159.0640 O.2     1  UNL1       -0.2750
     20 C         142.6105  138.5916  158.8196 C.2     1  UNL1        0.2245
     21 N         143.7216  139.2092  159.6158 N.am    1  UNL1       -0.3042
     22 H         144.6535  138.9351  159.4554 H       1  UNL1        0.1494
     23 C         142.9191  137.5562  157.7790 C.3     1  UNL1        0.1113
     24 C         141.8292  137.0428  156.8855 C.3     1  UNL1        0.1371
     25 N         141.9039  135.6489  156.3364 N.ar    1  UNL1       -0.2489
     26 C         142.8254  134.5636  156.8083 C.ar    1  UNL1        0.0967
     27 C         142.5611  133.3395  155.9826 C.ar    1  UNL1        0.0427
     28 C         141.4763  133.6684  155.0003 C.ar    1  UNL1        0.1217
     29 N         141.0701  135.0956  155.2190 N.ar    1  UNL1       -0.1676
     30 C         140.8212  141.8871  170.8381 C.2     1  UNL1        0.0774
     31 O         141.6554  141.1266  171.8259 O.co2   1  UNL1       -0.5444
     32 O         139.7967  142.8705  171.3214 O.co2   1  UNL1       -0.5444
     33 C         139.1485  139.9109  166.3330 C.3     1  UNL1        0.0857
     34 C         138.0517  139.8803  165.3102 C.3     1  UNL1        0.0245
     35 C         138.4674  138.6161  166.0021 C.3     1  UNL1        0.0245
@<TRIPOS>UNITY_ATOM_ATTR
31 1
charge -1
@<TRIPOS>BOND
     1    19    20    2
     2    20    23    1
     3    23    24    1
     4    24    25    1
     5    25    26   ar
     6    26    27   ar
     7    27    28   ar
     8    28    29   ar
     9    20    21   am
    10    21    14    1
    11    14    15    1
    12    15    16    1
    13    16    17    1
    14    17     1    1
    15     1     2   ar
    16     2     3    1
    17     2     4   ar
    18     4     5   ar
    19     5     6   ar
    20     6     7    2
    21     6     8   ar
    22     8    30    1
    23    30    31   ar
    24    30    32   ar
    25     8     9   ar
    26     9    10   ar
    27    10    33    1
    28    33    34    1
    29    34    35    1
    30    10    11   ar
    31    11    12   ar
    32    12    13    1
    33    17    18    1
    34    29    25   ar
    35    18    14    1
    36    12     1   ar
    37    11     5   ar
    38    35    33    1
    39    21    22    1
@<TRIPOS>MOLECULE
*****
 35 39 0 0 0
SMALL
GASTEIGER

@<TRIPOS>ATOM
      1 C         140.6656  139.5954  164.3214 C.ar    1  UNL1        0.0878
      2 C         141.3321  138.6644  165.2904 C.ar    1  UNL1        0.1543
      3 F         141.7266  137.2844  164.8543 F       1  UNL1       -0.2028
      4 C         141.6041  139.1133  166.6955 C.ar    1  UNL1        0.0356
      5 C         141.2096  140.4932  167.1317 C.ar    1  UNL1        0.0580
      6 C         141.4816  140.9421  168.5369 C.ar    1  UNL1        0.1996
      7 O         142.1481  140.0111  169.5059 O.2     1  UNL1       -0.2864
      8 C         141.0872  142.3220  168.9730 C.ar    1  UNL1        0.0701
      9 C         140.4207  143.2530  168.0039 C.ar    1  UNL1        0.0801
     10 N         140.1487  142.8041  166.5988 N.ar    1  UNL1       -0.3270
     11 C         140.5432  141.4242  166.1627 C.ar    1  UNL1        0.0750
     12 C         140.2712  140.9753  164.7575 C.ar    1  UNL1        0.0890
     13 CL        139.6047  141.9063  163.7884 Cl      1  UNL1       -0.0794
     14 C         140.6074  138.7880  160.5253 C.3     1  UNL1        0.0929
     15 C         139.3427  138.1234  160.9824 C.3     1  UNL1        0.0427
     16 C         139.2106  138.3450  162.4600 C.3     1  UNL1        0.0927
     17 N         140.3936  139.1465  162.9162 N.pl3   1  UNL1       -0.3033
     18 C         141.2569  139.4203  161.7204 C.3     1  UNL1        0.1104
     19 O         143.0190  137.1618  159.7905 O.2     1  UNL1       -0.2750
     20 C         142.3365  138.0024  158.7524 C.2     1  UNL1        0.2245
     21 N         141.1307  138.8155  159.1198 N.am    1  UNL1       -0.3042
     22 H         140.6828  139.3672  158.4385 H       1  UNL1        0.1494
     23 C         142.8598  138.0299  157.3469 C.3     1  UNL1        0.1113
     24 C         142.1959  137.2067  156.2832 C.3     1  UNL1        0.1371
     25 N         142.3294  135.7128  156.2984 N.ar    1  UNL1       -0.2489
     26 C         141.5589  134.7500  155.4444 C.ar    1  UNL1        0.0967
     27 C         142.0102  133.3615  155.7885 C.ar    1  UNL1        0.0427
     28 C         143.0597  133.4662  156.8551 C.ar    1  UNL1        0.1217
     29 N         143.2569  134.9193  157.1702 N.ar    1  UNL1       -0.1676
     30 C         141.3592  142.7709  170.3782 C.2     1  UNL1        0.0774
     31 O         142.6174  143.5236  170.6948 O.co2   1  UNL1       -0.5444
     32 O         140.3728  142.4672  171.4668 O.co2   1  UNL1       -0.5444
     33 C         139.4822  143.7351  165.6298 C.3     1  UNL1        0.0857
     34 C         139.5770  144.7769  164.5548 C.3     1  UNL1        0.0245
     35 C         138.2332  144.3059  165.0264 C.3     1  UNL1        0.0245
@<TRIPOS>UNITY_ATOM_ATTR
31 1
charge -1
@<TRIPOS>BOND
     1    19    20    2
     2    20    23    1
     3    23    24    1
     4    24    25    1
     5    25    26   ar
     6    26    27   ar
     7    27    28   ar
     8    28    29   ar
     9    20    21   am
    10    21    14    1
    11    14    15    1
    12    15    16    1
    13    16    17    1
    14    17     1    1
    15     1     2   ar
    16     2     3    1
    17     2     4   ar
    18     4     5   ar
    19     5     6   ar
    20     6     7    2
    21     6     8   ar
    22     8    30    1
    23    30    31   ar
    24    30    32   ar
    25     8     9   ar
    26     9    10   ar
    27    10    33    1
    28    33    34    1
    29    34    35    1
    30    10    11   ar
    31    11    12   ar
    32    12    13    1
    33    17    18    1
    34    29    25   ar
    35    18    14    1
    36    12     1   ar
    37    11     5   ar
    38    35    33    1
    39    21    22    1
@<TRIPOS>MOLECULE
*****
 35 39 0 0 0
SMALL
GASTEIGER

@<TRIPOS>ATOM
      1 C         140.0036  139.5387  164.2688 C.ar    1  UNL1        0.0878
      2 C         139.0605  138.8096  165.1793 C.ar    1  UNL1        0.1543
      3 F         138.1654  137.7386  164.6300 F       1  UNL1       -0.2028
      4 C         139.0125  139.1515  166.6389 C.ar    1  UNL1        0.0356
      5 C         139.9077  140.2226  167.1882 C.ar    1  UNL1        0.0580
      6 C         139.8597  140.5644  168.6480 C.ar    1  UNL1        0.1996
      7 O         138.9166  139.8353  169.5584 O.2     1  UNL1       -0.2864
      8 C         140.7548  141.6354  169.1972 C.ar    1  UNL1        0.0701
      9 C         141.6979  142.3646  168.2867 C.ar    1  UNL1        0.0801
     10 N         141.7459  142.0227  166.8270 N.ar    1  UNL1       -0.3270
     11 C         140.8508  140.9516  166.2778 C.ar    1  UNL1        0.0750
     12 C         140.8987  140.6097  164.8181 C.ar    1  UNL1        0.0890
     13 CL        141.8418  141.3389  163.9075 Cl      1  UNL1       -0.0794
     14 C         139.4839  139.0441  160.4542 C.3     1  UNL1        0.0929
     15 C         140.7668  138.2975  160.6712 C.3     1  UNL1        0.0427
     16 C         141.1176  138.3919  162.1266 C.3     1  UNL1        0.0927
     17 N         140.0516  139.1968  162.8090 N.pl3   1  UNL1       -0.3033
     18 C         139.0420  139.5999  161.7755 C.3     1  UNL1        0.1104
     19 O         139.9873  141.4684  158.7602 O.2     1  UNL1       -0.2750
     20 C         139.0204  140.4185  158.2987 C.2     1  UNL1        0.2245
     21 N         138.7688  139.2063  159.1457 N.am    1  UNL1       -0.3042
     22 H         138.1342  138.5172  158.8428 H       1  UNL1        0.1494
     23 C         138.3052  140.5807  156.9902 C.3     1  UNL1        0.1113
     24 C         137.1527  141.5342  156.8786 C.3     1  UNL1        0.1371
     25 N         135.8528  141.0738  156.2885 N.ar    1  UNL1       -0.2489
     26 C         135.2414  141.5660  155.0103 C.ar    1  UNL1        0.0967
     27 C         133.9468  140.8368  154.8048 C.ar    1  UNL1        0.0427
     28 C         133.7581  139.8939  155.9561 C.ar    1  UNL1        0.1217
     29 N         134.9361  140.0404  156.8730 N.ar    1  UNL1       -0.1676
     30 C         140.7069  141.9774  170.6569 C.2     1  UNL1        0.0774
     31 O         139.6788  142.9428  171.1677 O.co2   1  UNL1       -0.5444
     32 O         141.6870  141.3538  171.6059 O.co2   1  UNL1       -0.5444
     33 C         142.6890  142.7518  165.9166 C.3     1  UNL1        0.0857
     34 C         144.0786  142.9840  165.4019 C.3     1  UNL1        0.0245
     35 C         142.9329  143.7823  164.8543 C.3     1  UNL1        0.0245
@<TRIPOS>UNITY_ATOM_ATTR
31 1
charge -1
@<TRIPOS>BOND
     1    19    20    2
     2    20    23    1
     3    23    24    1
     4    24    25    1
     5    25    26   ar
     6    26    27   ar
     7    27    28   ar
     8    28    29   ar
     9    20    21   am
    10    21    14    1
    11    14    15    1
    12    15    16    1
    13    16    17    1
    14    17     1    1
    15     1     2   ar
    16     2     3    1
    17     2     4   ar
    18     4     5   ar
    19     5     6   ar
    20     6     7    2
    21     6     8   ar
    22     8    30    1
    23    30    31   ar
    24    30    32   ar
    25     8     9   ar
    26     9    10   ar
    27    10    33    1
    28    33    34    1
    29    34    35    1
    30    10    11   ar
    31    11    12   ar
    32    12    13    1
    33    17    18    1
    34    29    25   ar
    35    18    14    1
    36    12     1   ar
    37    11     5   ar
    38    35    33    1
    39    21    22    1
@<TRIPOS>MOLECULE
*****
 35 39 0 0 0
SMALL
GASTEIGER

@<TRIPOS>ATOM
      1 C         139.7199  139.9649  162.7032 C.ar    1  UNL1        0.0878
      2 C         138.5841  139.1458  163.2408 C.ar    1  UNL1        0.1543
      3 F         137.6541  138.4426  162.2972 F       1  UNL1       -0.2028
      4 C         138.3783  139.0300  164.7221 C.ar    1  UNL1        0.0356
      5 C         139.3084  139.7333  165.6657 C.ar    1  UNL1        0.0580
      6 C         139.1026  139.6174  167.1471 C.ar    1  UNL1        0.1996
      7 O         137.9668  138.7983  167.6847 O.2     1  UNL1       -0.2864
      8 C         140.0326  140.3207  168.0907 C.ar    1  UNL1        0.0701
      9 C         141.1684  141.1398  167.5530 C.ar    1  UNL1        0.0801
     10 N         141.3742  141.2556  166.0717 N.ar    1  UNL1       -0.3270
     11 C         140.4441  140.5523  165.1281 C.ar    1  UNL1        0.0750
     12 C         140.6499  140.6682  163.6468 C.ar    1  UNL1        0.0890
     13 CL        141.7857  141.4873  163.1091 Cl      1  UNL1       -0.0794
     14 C         140.4209  139.5312  158.9102 C.3     1  UNL1        0.0929
     15 C         140.0638  140.9867  158.9745 C.3     1  UNL1        0.0427
     16 C         139.7578  141.3263  160.4031 C.3     1  UNL1        0.0927
     17 N         139.9256  140.0807  161.2218 N.pl3   1  UNL1       -0.3033
     18 C         140.3355  138.9713  160.2992 C.3     1  UNL1        0.1104
     19 O         138.4487  139.2415  156.6682 O.2     1  UNL1       -0.2750
     20 C         139.8112  138.6245  156.5531 C.2     1  UNL1        0.2245
     21 N         140.7972  138.7694  157.6741 N.am    1  UNL1       -0.3042
     22 H         141.6914  138.3645  157.5986 H       1  UNL1        0.1494
     23 C         140.1875  137.8627  155.3170 C.3     1  UNL1        0.1113
     24 C         140.1463  136.3633  155.3184 C.3     1  UNL1        0.1371
     25 N         141.3415  135.5806  155.7754 N.ar    1  UNL1       -0.2489
     26 C         141.7020  134.1898  155.3444 C.ar    1  UNL1        0.0967
     27 C         142.9693  133.8009  156.0463 C.ar    1  UNL1        0.0427
     28 C         143.3920  134.9514  156.9111 C.ar    1  UNL1        0.1217
     29 N         142.3860  136.0512  156.7437 N.ar    1  UNL1       -0.1676
     30 C         139.8269  140.2049  169.5720 C.2     1  UNL1        0.0774
     31 O         140.7158  139.3112  170.3851 O.co2   1  UNL1       -0.5444
     32 O         138.7321  140.9827  170.2402 O.co2   1  UNL1       -0.5444
     33 C         142.5099  142.0747  165.5341 C.3     1  UNL1        0.0857
     34 C         143.9571  142.2017  165.1607 C.3     1  UNL1        0.0245
     35 C         143.0300  143.3663  164.9763 C.3     1  UNL1        0.0245
@<TRIPOS>UNITY_ATOM_ATTR
31 1
charge -1
@<TRIPOS>BOND
     1    19    20    2
     2    20    23    1
     3    23    24    1
     4    24    25    1
     5    25    26   ar
     6    26    27   ar
     7    27    28   ar
     8    28    29   ar
     9    20    21   am
    10    21    14    1
    11    14    15    1
    12    15    16    1
    13    16    17    1
    14    17     1    1
    15     1     2   ar
    16     2     3    1
    17     2     4   ar
    18     4     5   ar
    19     5     6   ar
    20     6     7    2
    21     6     8   ar
    22     8    30    1
    23    30    31   ar
    24    30    32   ar
    25     8     9   ar
    26     9    10   ar
    27    10    33    1
    28    33    34    1
    29    34    35    1
    30    10    11   ar
    31    11    12   ar
    32    12    13    1
    33    17    18    1
    34    29    25   ar
    35    18    14    1
    36    12     1   ar
    37    11     5   ar
    38    35    33    1
    39    21    22    1
