@<TRIPOS>MOLECULE
*****
 33 35 0 0 0
SMALL
GASTEIGER

@<TRIPOS>ATOM
      1 C         144.9325  142.1088  162.3467 C.3     1  UNL1        0.0616
      2 C         143.1199  141.0943  166.3386 C.ar    1  UNL1        0.0000
      3 C         143.6440  142.4761  166.0824 C.ar    1  UNL1       -0.0003
      4 C         144.2482  142.8144  164.7517 C.ar    1  UNL1       -0.0042
      5 C         144.3283  141.7707  163.6773 C.ar    1  UNL1       -0.0194
      6 C         143.8042  140.3887  163.9336 C.ar    1  UNL1       -0.0042
      7 C         143.2000  140.0506  165.2642 C.ar    1  UNL1       -0.0003
      8 C         141.0380  141.4149  169.7021 C.ar    1  UNL1        0.1057
      9 C         141.3072  140.0797  170.3304 C.ar    1  UNL1        0.0183
     10 C         142.1806  139.0827  169.6282 C.ar    1  UNL1        0.0013
     11 C         142.7849  139.4209  168.2976 C.ar    1  UNL1        0.0001
     12 C         142.5157  140.7560  167.6693 C.ar    1  UNL1        0.0013
     13 C         141.6423  141.7530  168.3715 C.ar    1  UNL1        0.0183
     14 C         139.2912  143.4089  171.1066 C.3     1  UNL1        0.1816
     15 S         140.1646  142.4119  170.4044 S.O2    1  UNL1        0.0104
     16 O         139.0441  141.4149  170.4260 O.2     1  UNL1       -0.1686
     17 O         141.2852  143.4088  170.3827 O.2     1  UNL1       -0.1686
     18 C         144.0479  142.4841  161.1950 C.3     1  UNL1        0.1684
     19 N         142.6023  142.8059  161.4334 N.am    1  UNL1       -0.2925
     20 C         142.2178  144.1192  162.0479 C.2     1  UNL1        0.2356
     21 O         143.2787  145.1106  162.4239 O.2     1  UNL1       -0.2737
     22 H         141.9060  142.1552  161.1866 H       1  UNL1        0.1504
     23 C         140.7722  144.4409  162.2863 C.3     1  UNL1        0.1134
     24 N         141.1161  145.5090  161.2907 N.3     1  UNL1       -0.3163
     25 C         140.9304  143.2612  163.1990 C.3     1  UNL1        0.0552
     26 C         139.7624  142.7741  164.0044 C.3     1  UNL1        0.1440
     27 O         138.4363  143.4668  163.8970 O.3     1  UNL1       -0.3537
     28 C         138.2781  144.6466  162.9843 C.3     1  UNL1        0.1440
     29 C         139.4461  145.1337  162.1789 C.3     1  UNL1        0.0552
     30 H         142.0962  145.4208  161.0225 H       1  UNL1        0.1192
     31 H         140.9590  146.4262  161.7083 H       1  UNL1        0.1192
     32 C         144.6088  142.5377  159.8048 C.1     1  UNL1        0.0927
     33 N         145.1697  142.5912  158.4147 N.1     1  UNL1       -0.1942
@<TRIPOS>BOND
     1    14    15    1
     2    15    16    2
     3    15    17    2
     4    15     8    1
     5     8     9   ar
     6     9    10   ar
     7    10    11   ar
     8    11    12   ar
     9    12     2    1
    10     2     3   ar
    11     3     4   ar
    12     4     5   ar
    13     5     1    1
    14    18     1    1
    15    18    32    1
    16    32    33    3
    17    18    19    1
    18    19    20   am
    19    20    21    2
    20    20    23    1
    21    23    24    1
    22    23    25    1
    23    25    26    1
    24    26    27    1
    25    27    28    1
    26    28    29    1
    27     5     6   ar
    28     6     7   ar
    29    12    13   ar
    30    13     8   ar
    31     7     2   ar
    32    29    23    1
    33    19    22    1
    34    24    30    1
    35    24    31    1
@<TRIPOS>MOLECULE
*****
 33 35 0 0 0
SMALL
GASTEIGER

@<TRIPOS>ATOM
      1 C         144.7927  141.6646  162.2053 C.3     1  UNL1        0.0616
      2 C         143.2764  141.8544  166.4379 C.ar    1  UNL1        0.0000
      3 C         143.0674  140.6136  165.6213 C.ar    1  UNL1       -0.0003
      4 C         143.5729  140.5503  164.2104 C.ar    1  UNL1       -0.0042
      5 C         144.2872  141.7278  163.6161 C.ar    1  UNL1       -0.0194
      6 C         144.4962  142.9686  164.4328 C.ar    1  UNL1       -0.0042
      7 C         143.9907  143.0319  165.8436 C.ar    1  UNL1       -0.0003
      8 C         140.9213  141.4095  169.6011 C.ar    1  UNL1        0.1057
      9 C         141.7600  142.0442  170.6704 C.ar    1  UNL1        0.0183
     10 C         143.1042  142.6156  170.3290 C.ar    1  UNL1        0.0013
     11 C         143.6097  142.5524  168.9182 C.ar    1  UNL1        0.0001
     12 C         142.7709  141.9177  167.8488 C.ar    1  UNL1        0.0013
     13 C         141.4267  141.3462  168.1902 C.ar    1  UNL1        0.0183
     14 C         138.2329  140.2666  170.2840 C.3     1  UNL1        0.1816
     15 S         139.5771  140.8380  169.9425 S.O2    1  UNL1        0.0104
     16 O         139.9218  139.5823  169.1980 O.2     1  UNL1       -0.1686
     17 O         139.2324  142.0937  170.6871 O.2     1  UNL1       -0.1686
     18 C         143.8908  142.0426  161.0679 C.3     1  UNL1        0.1684
     19 N         142.4144  142.1792  161.2949 N.am    1  UNL1       -0.2925
     20 C         141.8437  143.4891  161.7516 C.2     1  UNL1        0.2356
     21 O         142.7495  144.6625  161.9812 O.2     1  UNL1       -0.2737
     22 H         141.8199  141.4090  161.1442 H       1  UNL1        0.1504
     23 C         140.3673  143.6257  161.9785 C.3     1  UNL1        0.1134
     24 N         140.3650  143.0200  160.6062 N.3     1  UNL1       -0.3163
     25 C         140.8824  144.1839  163.2720 C.3     1  UNL1        0.0552
     26 C         139.9203  144.6683  164.3159 C.3     1  UNL1        0.1440
     27 O         138.4430  144.5945  164.0662 O.3     1  UNL1       -0.3537
     28 C         137.9279  144.0362  162.7727 C.3     1  UNL1        0.1440
     29 C         138.8901  143.5518  161.7289 C.3     1  UNL1        0.0552
     30 H         141.3259  142.8623  160.3026 H       1  UNL1        0.1192
     31 H         139.9025  143.6546  159.9553 H       1  UNL1        0.1192
     32 C         144.4653  142.2842  159.7035 C.1     1  UNL1        0.0927
     33 N         145.0398  142.5257  158.3391 N.1     1  UNL1       -0.1942
@<TRIPOS>BOND
     1    14    15    1
     2    15    16    2
     3    15    17    2
     4    15     8    1
     5     8     9   ar
     6     9    10   ar
     7    10    11   ar
     8    11    12   ar
     9    12     2    1
    10     2     3   ar
    11     3     4   ar
    12     4     5   ar
    13     5     1    1
    14    18     1    1
    15    18    32    1
    16    32    33    3
    17    18    19    1
    18    19    20   am
    19    20    21    2
    20    20    23    1
    21    23    24    1
    22    23    25    1
    23    25    26    1
    24    26    27    1
    25    27    28    1
    26    28    29    1
    27     5     6   ar
    28     6     7   ar
    29    12    13   ar
    30    13     8   ar
    31     7     2   ar
    32    29    23    1
    33    19    22    1
    34    24    30    1
    35    24    31    1
@<TRIPOS>MOLECULE
*****
 33 35 0 0 0
SMALL
GASTEIGER

@<TRIPOS>ATOM
      1 C         139.7168  138.3205  162.1976 C.3     1  UNL1        0.0616
      2 C         139.8413  139.7640  166.4579 C.ar    1  UNL1        0.0000
      3 C         141.1175  139.5710  165.6938 C.ar    1  UNL1       -0.0003
      4 C         141.0761  139.0898  164.2737 C.ar    1  UNL1       -0.0042
      5 C         139.7583  138.8016  163.6176 C.ar    1  UNL1       -0.0194
      6 C         138.4820  138.9946  164.3818 C.ar    1  UNL1       -0.0042
      7 C         138.5235  139.4758  165.8019 C.ar    1  UNL1       -0.0003
      8 C         141.0709  141.5700  169.7710 C.ar    1  UNL1        0.1057
      9 C         139.9658  141.2075  170.7183 C.ar    1  UNL1        0.0183
     10 C         138.8192  140.3639  170.2454 C.ar    1  UNL1        0.0013
     11 C         138.7776  139.8827  168.8253 C.ar    1  UNL1        0.0001
     12 C         139.8827  140.2451  167.8781 C.ar    1  UNL1        0.0013
     13 C         141.0293  141.0888  168.3509 C.ar    1  UNL1        0.0183
     14 C         143.3641  143.2572  170.7167 C.3     1  UNL1        0.1816
     15 S         142.2175  142.4136  170.2438 S.O2    1  UNL1        0.0104
     16 O         141.7323  142.2810  171.6570 O.2     1  UNL1       -0.1686
     17 O         142.7027  142.5462  168.8307 O.2     1  UNL1       -0.1686
     18 C         139.7478  139.3088  161.0697 C.3     1  UNL1        0.1684
     19 N         140.0306  140.7554  161.3476 N.am    1  UNL1       -0.2925
     20 C         138.9048  141.6894  161.6797 C.2     1  UNL1        0.2356
     21 O         137.4962  141.1768  161.7338 O.2     1  UNL1       -0.2737
     22 H         140.9552  141.0919  161.3121 H       1  UNL1        0.1504
     23 C         139.1877  143.1360  161.9576 C.3     1  UNL1        0.1134
     24 N         138.4903  143.2564  160.6351 N.3     1  UNL1       -0.3163
     25 C         139.7869  142.5132  163.1836 C.3     1  UNL1        0.0552
     26 C         140.4268  143.3789  164.2283 C.3     1  UNL1        0.1440
     27 O         140.4674  144.8673  164.0469 O.3     1  UNL1       -0.3537
     28 C         139.8682  145.4901  162.8209 C.3     1  UNL1        0.1440
     29 C         139.2283  144.6245  161.7762 C.3     1  UNL1        0.0552
     30 H         138.2269  142.3283  160.3039 H       1  UNL1        0.1192
     31 H         139.1165  143.6936  159.9590 H       1  UNL1        0.1192
     32 C         139.4959  138.8505  159.6637 C.1     1  UNL1        0.0927
     33 N         139.2440  138.3923  158.2578 N.1     1  UNL1       -0.1942
@<TRIPOS>BOND
     1    14    15    1
     2    15    16    2
     3    15    17    2
     4    15     8    1
     5     8     9   ar
     6     9    10   ar
     7    10    11   ar
     8    11    12   ar
     9    12     2    1
    10     2     3   ar
    11     3     4   ar
    12     4     5   ar
    13     5     1    1
    14    18     1    1
    15    18    32    1
    16    32    33    3
    17    18    19    1
    18    19    20   am
    19    20    21    2
    20    20    23    1
    21    23    24    1
    22    23    25    1
    23    25    26    1
    24    26    27    1
    25    27    28    1
    26    28    29    1
    27     5     6   ar
    28     6     7   ar
    29    12    13   ar
    30    13     8   ar
    31     7     2   ar
    32    29    23    1
    33    19    22    1
    34    24    30    1
    35    24    31    1
@<TRIPOS>MOLECULE
*****
 33 35 0 0 0
SMALL
GASTEIGER

@<TRIPOS>ATOM
      1 C         140.4830  145.3288  161.7174 C.3     1  UNL1        0.0616
      2 C         141.1590  143.1140  165.5759 C.ar    1  UNL1        0.0000
      3 C         142.2815  143.2681  164.5931 C.ar    1  UNL1       -0.0003
      4 C         142.0562  144.0064  163.3068 C.ar    1  UNL1       -0.0042
      5 C         140.7083  144.5905  163.0036 C.ar    1  UNL1       -0.0194
      6 C         139.5857  144.4364  163.9865 C.ar    1  UNL1       -0.0042
      7 C         139.8111  143.6982  165.2727 C.ar    1  UNL1       -0.0003
      8 C         140.4430  141.0704  168.9018 C.ar    1  UNL1        0.1057
      9 C         141.8347  140.8993  169.4345 C.ar    1  UNL1        0.0183
     10 C         143.0012  141.4665  168.6810 C.ar    1  UNL1        0.0013
     11 C         142.7760  142.2047  167.3949 C.ar    1  UNL1        0.0001
     12 C         141.3843  142.3758  166.8622 C.ar    1  UNL1        0.0013
     13 C         140.2178  141.8086  167.6156 C.ar    1  UNL1        0.0183
     14 C         138.1101  139.9360  170.4086 C.3     1  UNL1        0.1816
     15 S         139.2766  140.5032  169.6552 S.O2    1  UNL1        0.0104
     16 O         139.5575  141.4382  170.7940 O.2     1  UNL1       -0.1686
     17 O         138.9956  139.5682  168.5164 O.2     1  UNL1       -0.1686
     18 C         140.3011  144.5676  160.4378 C.3     1  UNL1        0.1684
     19 N         140.1812  143.0727  160.4649 N.am    1  UNL1       -0.2925
     20 C         138.8805  142.4314  160.8483 C.2     1  UNL1        0.2356
     21 O         137.6997  143.2851  161.2046 O.2     1  UNL1       -0.2737
     22 H         140.9562  142.5124  160.2310 H       1  UNL1        0.1504
     23 C         138.7606  140.9365  160.8754 C.3     1  UNL1        0.1134
     24 N         139.0880  141.1453  159.4266 N.3     1  UNL1       -0.3163
     25 C         138.4747  141.2469  162.3148 C.3     1  UNL1        0.0552
     26 C         138.1827  140.1347  163.2782 C.3     1  UNL1        0.1440
     27 O         138.1765  138.7124  162.8020 O.3     1  UNL1       -0.3537
     28 C         138.4624  138.4020  161.3626 C.3     1  UNL1        0.1440
     29 C         138.7544  139.5141  160.3992 C.3     1  UNL1        0.0552
     30 H         139.2033  142.1423  159.2443 H       1  UNL1        0.1192
     31 H         138.3298  140.7798  158.8505 H       1  UNL1        0.1192
     32 C         140.2391  145.3015  159.1310 C.1     1  UNL1        0.0927
     33 N         140.1771  146.0353  157.8242 N.1     1  UNL1       -0.1942
@<TRIPOS>BOND
     1    14    15    1
     2    15    16    2
     3    15    17    2
     4    15     8    1
     5     8     9   ar
     6     9    10   ar
     7    10    11   ar
     8    11    12   ar
     9    12     2    1
    10     2     3   ar
    11     3     4   ar
    12     4     5   ar
    13     5     1    1
    14    18     1    1
    15    18    32    1
    16    32    33    3
    17    18    19    1
    18    19    20   am
    19    20    21    2
    20    20    23    1
    21    23    24    1
    22    23    25    1
    23    25    26    1
    24    26    27    1
    25    27    28    1
    26    28    29    1
    27     5     6   ar
    28     6     7   ar
    29    12    13   ar
    30    13     8   ar
    31     7     2   ar
    32    29    23    1
    33    19    22    1
    34    24    30    1
    35    24    31    1
@<TRIPOS>MOLECULE
*****
 33 35 0 0 0
SMALL
GASTEIGER

@<TRIPOS>ATOM
      1 C         139.3637  137.7125  164.8660 C.3     1  UNL1        0.0616
      2 C         140.7356  138.5630  160.6655 C.ar    1  UNL1        0.0000
      3 C         139.3075  138.1854  160.9261 C.ar    1  UNL1       -0.0003
      4 C         138.8502  137.9019  162.3263 C.ar    1  UNL1       -0.0042
      5 C         139.8210  137.9960  163.4659 C.ar    1  UNL1       -0.0194
      6 C         141.2491  138.3736  163.2053 C.ar    1  UNL1       -0.0042
      7 C         141.7064  138.6571  161.8051 C.ar    1  UNL1       -0.0003
      8 C         142.4367  138.0998  157.1100 C.ar    1  UNL1        0.1057
      9 C         142.1077  139.4134  156.4650 C.ar    1  UNL1        0.0183
     10 C         141.3212  140.4436  157.2202 C.ar    1  UNL1        0.0013
     11 C         140.8639  140.1602  158.6203 C.ar    1  UNL1        0.0001
     12 C         141.1930  138.8465  159.2653 C.ar    1  UNL1        0.0013
     13 C         141.9794  137.8163  158.5101 C.ar    1  UNL1        0.0183
     14 C         144.0096  136.0394  155.5996 C.3     1  UNL1        0.1816
     15 S         143.2231  137.0696  156.3548 S.O2    1  UNL1        0.0104
     16 O         144.2401  138.1112  155.9929 O.2     1  UNL1       -0.1686
     17 O         142.2062  136.0280  156.7167 O.2     1  UNL1       -0.1686
     18 C         138.4335  138.6640  165.5583 C.3     1  UNL1        0.1684
     19 N         138.2363  140.0484  165.0156 N.am    1  UNL1       -0.2925
     20 C         139.2501  141.1168  165.2998 C.2     1  UNL1        0.2356
     21 O         140.4610  140.8008  166.1266 O.2     1  UNL1       -0.2737
     22 H         137.4415  140.2558  164.4729 H       1  UNL1        0.1504
     23 C         139.0529  142.5012  164.7571 C.3     1  UNL1        0.1134
     24 N         139.8323  142.8169  165.9992 N.3     1  UNL1       -0.3163
     25 C         138.3420  141.7047  163.7035 C.3     1  UNL1        0.0552
     26 C         137.7045  142.4022  162.5385 C.3     1  UNL1        0.1440
     27 O         137.7781  143.8963  162.4272 O.3     1  UNL1       -0.3537
     28 C         138.4890  144.6928  163.4808 C.3     1  UNL1        0.1440
     29 C         139.1264  143.9953  164.6458 C.3     1  UNL1        0.0552
     30 H         140.0492  141.9515  166.4936 H       1  UNL1        0.1192
     31 H         139.2781  143.4239  166.6033 H       1  UNL1        0.1192
     32 C         137.7003  138.2311  166.7933 C.1     1  UNL1        0.0927
     33 N         136.9672  137.7981  168.0282 N.1     1  UNL1       -0.1942
@<TRIPOS>BOND
     1    14    15    1
     2    15    16    2
     3    15    17    2
     4    15     8    1
     5     8     9   ar
     6     9    10   ar
     7    10    11   ar
     8    11    12   ar
     9    12     2    1
    10     2     3   ar
    11     3     4   ar
    12     4     5   ar
    13     5     1    1
    14    18     1    1
    15    18    32    1
    16    32    33    3
    17    18    19    1
    18    19    20   am
    19    20    21    2
    20    20    23    1
    21    23    24    1
    22    23    25    1
    23    25    26    1
    24    26    27    1
    25    27    28    1
    26    28    29    1
    27     5     6   ar
    28     6     7   ar
    29    12    13   ar
    30    13     8   ar
    31     7     2   ar
    32    29    23    1
    33    19    22    1
    34    24    30    1
    35    24    31    1
@<TRIPOS>MOLECULE
*****
 33 35 0 0 0
SMALL
GASTEIGER

@<TRIPOS>ATOM
      1 C         139.0641  138.3260  161.8057 C.3     1  UNL1        0.0616
      2 C         139.4420  139.6345  166.0947 C.ar    1  UNL1        0.0000
      3 C         140.2212  138.4521  165.5999 C.ar    1  UNL1       -0.0003
      4 C         140.0952  138.0159  164.1702 C.ar    1  UNL1       -0.0042
      5 C         139.1901  138.7621  163.2354 C.ar    1  UNL1       -0.0194
      6 C         138.4109  139.9446  163.7302 C.ar    1  UNL1       -0.0042
      7 C         138.5369  140.3807  165.1598 C.ar    1  UNL1       -0.0003
      8 C         140.8720  141.3289  169.3863 C.ar    1  UNL1        0.1057
      9 C         139.8200  140.9432  170.3835 C.ar    1  UNL1        0.0183
     10 C         138.6421  140.1212  169.9512 C.ar    1  UNL1        0.0013
     11 C         138.5161  139.6850  168.5216 C.ar    1  UNL1        0.0001
     12 C         139.5680  140.0707  167.5243 C.ar    1  UNL1        0.0013
     13 C         140.7460  140.8926  167.9567 C.ar    1  UNL1        0.0183
     14 C         143.2279  142.9727  170.2509 C.3     1  UNL1        0.1816
     15 S         142.0499  142.1508  169.8186 S.O2    1  UNL1        0.0104
     16 O         141.4074  142.3678  171.1565 O.2     1  UNL1       -0.1686
     17 O         142.6924  141.9337  168.4806 O.2     1  UNL1       -0.1686
     18 C         139.9593  138.9197  160.7589 C.3     1  UNL1        0.1684
     19 N         141.0570  139.8612  161.1569 N.am    1  UNL1       -0.2925
     20 C         142.4132  139.3259  161.5095 C.2     1  UNL1        0.2356
     21 O         142.6716  137.8491  161.4641 O.2     1  UNL1       -0.2737
     22 H         140.8874  140.8306  161.1868 H       1  UNL1        0.1504
     23 C         143.5109  140.2675  161.9076 C.3     1  UNL1        0.1134
     24 N         143.0507  140.9248  160.6403 N.3     1  UNL1       -0.3163
     25 C         143.5899  139.2831  163.0367 C.3     1  UNL1        0.0552
     26 C         144.6067  139.4687  164.1237 C.3     1  UNL1        0.1440
     27 O         145.5446  140.6385  164.0816 O.3     1  UNL1       -0.3537
     28 C         145.4657  141.6229  162.9525 C.3     1  UNL1        0.1440
     29 C         144.4488  141.4374  161.8655 C.3     1  UNL1        0.0552
     30 H         142.2838  140.3865  160.2372 H       1  UNL1        0.1192
     31 H         143.8246  140.9634  159.9769 H       1  UNL1        0.1192
     32 C         139.7569  138.5718  159.3138 C.1     1  UNL1        0.0927
     33 N         139.5545  138.2239  157.8688 N.1     1  UNL1       -0.1942
@<TRIPOS>BOND
     1    14    15    1
     2    15    16    2
     3    15    17    2
     4    15     8    1
     5     8     9   ar
     6     9    10   ar
     7    10    11   ar
     8    11    12   ar
     9    12     2    1
    10     2     3   ar
    11     3     4   ar
    12     4     5   ar
    13     5     1    1
    14    18     1    1
    15    18    32    1
    16    32    33    3
    17    18    19    1
    18    19    20   am
    19    20    21    2
    20    20    23    1
    21    23    24    1
    22    23    25    1
    23    25    26    1
    24    26    27    1
    25    27    28    1
    26    28    29    1
    27     5     6   ar
    28     6     7   ar
    29    12    13   ar
    30    13     8   ar
    31     7     2   ar
    32    29    23    1
    33    19    22    1
    34    24    30    1
    35    24    31    1
@<TRIPOS>MOLECULE
*****
 33 35 0 0 0
SMALL
GASTEIGER

@<TRIPOS>ATOM
      1 C         141.0752  138.0146  161.8887 C.3     1  UNL1        0.0616
      2 C         140.4831  139.5876  166.0630 C.ar    1  UNL1        0.0000
      3 C         139.4504  139.8532  165.0080 C.ar    1  UNL1       -0.0003
      4 C         139.6478  139.3289  163.6165 C.ar    1  UNL1       -0.0042
      5 C         140.8778  138.5389  163.2801 C.ar    1  UNL1       -0.0194
      6 C         141.9104  138.2734  164.3352 C.ar    1  UNL1       -0.0042
      7 C         141.7131  138.7977  165.7266 C.ar    1  UNL1       -0.0003
      8 C         141.1272  141.5217  169.4681 C.ar    1  UNL1        0.1057
      9 C         139.8911  141.1607  170.2373 C.ar    1  UNL1        0.0183
     10 C         138.8524  140.2753  169.6151 C.ar    1  UNL1        0.0013
     11 C         139.0497  139.7509  168.2237 C.ar    1  UNL1        0.0001
     12 C         140.2857  140.1120  167.4545 C.ar    1  UNL1        0.0013
     13 C         141.3245  140.9974  168.0767 C.ar    1  UNL1        0.0183
     14 C         143.2047  143.2925  170.7124 C.3     1  UNL1        0.1816
     15 S         142.1659  142.4071  170.0902 S.O2    1  UNL1        0.0104
     16 O         141.0967  143.1139  170.8694 O.2     1  UNL1       -0.1686
     17 O         143.2351  141.7002  169.3111 O.2     1  UNL1       -0.1686
     18 C         141.8713  138.8069  160.8946 C.3     1  UNL1        0.1684
     19 N         142.1675  140.2544  161.1538 N.am    1  UNL1       -0.2925
     20 C         143.4288  140.6462  161.8649 C.2     1  UNL1        0.2356
     21 O         144.3939  139.5906  162.3168 O.2     1  UNL1       -0.2737
     22 H         141.5341  140.9472  160.8571 H       1  UNL1        0.1504
     23 C         143.7250  142.0936  162.1241 C.3     1  UNL1        0.1134
     24 N         144.4644  141.9036  160.8329 N.3     1  UNL1       -0.3163
     25 C         142.8827  141.7810  163.3252 C.3     1  UNL1        0.0552
     26 C         142.5934  142.8498  164.3372 C.3     1  UNL1        0.1440
     27 O         143.1464  144.2312  164.1479 O.3     1  UNL1       -0.3537
     28 C         143.9887  144.5439  162.9467 C.3     1  UNL1        0.1440
     29 C         144.2780  143.4751  161.9348 C.3     1  UNL1        0.0552
     30 H         144.3556  140.9397  160.5175 H       1  UNL1        0.1192
     31 H         145.4541  142.1052  160.9751 H       1  UNL1        0.1192
     32 C         142.3714  138.1518  159.6412 C.1     1  UNL1        0.0927
     33 N         142.8714  137.4968  158.3879 N.1     1  UNL1       -0.1942
@<TRIPOS>BOND
     1    14    15    1
     2    15    16    2
     3    15    17    2
     4    15     8    1
     5     8     9   ar
     6     9    10   ar
     7    10    11   ar
     8    11    12   ar
     9    12     2    1
    10     2     3   ar
    11     3     4   ar
    12     4     5   ar
    13     5     1    1
    14    18     1    1
    15    18    32    1
    16    32    33    3
    17    18    19    1
    18    19    20   am
    19    20    21    2
    20    20    23    1
    21    23    24    1
    22    23    25    1
    23    25    26    1
    24    26    27    1
    25    27    28    1
    26    28    29    1
    27     5     6   ar
    28     6     7   ar
    29    12    13   ar
    30    13     8   ar
    31     7     2   ar
    32    29    23    1
    33    19    22    1
    34    24    30    1
    35    24    31    1
@<TRIPOS>MOLECULE
*****
 33 35 0 0 0
SMALL
GASTEIGER

@<TRIPOS>ATOM
      1 C         142.9399  138.0030  161.9180 C.3     1  UNL1        0.0616
      2 C         142.5183  139.3242  166.1990 C.ar    1  UNL1        0.0000
      3 C         141.4538  138.4770  165.5672 C.ar    1  UNL1       -0.0003
      4 C         141.5943  138.0366  164.1402 C.ar    1  UNL1       -0.0042
      5 C         142.7993  138.4434  163.3450 C.ar    1  UNL1       -0.0194
      6 C         143.8639  139.2905  163.9768 C.ar    1  UNL1       -0.0042
      7 C         143.7233  139.7309  165.4037 C.ar    1  UNL1       -0.0003
      8 C         141.6741  141.5591  169.3679 C.ar    1  UNL1        0.1057
      9 C         142.0967  140.6454  170.4799 C.ar    1  UNL1        0.0183
     10 C         142.6598  139.2913  170.1649 C.ar    1  UNL1        0.0013
     11 C         142.8003  138.8509  168.7380 C.ar    1  UNL1        0.0001
     12 C         142.3778  139.7646  167.6260 C.ar    1  UNL1        0.0013
     13 C         141.8146  141.1187  167.9410 C.ar    1  UNL1        0.0183
     14 C         140.5479  144.2674  169.9979 C.3     1  UNL1        0.1816
     15 S         141.1110  142.9133  169.6829 S.O2    1  UNL1        0.0104
     16 O         142.0719  143.0467  170.8270 O.2     1  UNL1       -0.1686
     17 O         140.1501  142.7798  168.5388 O.2     1  UNL1       -0.1686
     18 C         142.4575  138.8897  160.8085 C.3     1  UNL1        0.1684
     19 N         141.5830  140.0687  161.1171 N.am    1  UNL1       -0.2925
     20 C         140.0967  139.8938  161.2192 C.2     1  UNL1        0.2356
     21 O         139.4849  138.5399  161.0129 O.2     1  UNL1       -0.2737
     22 H         141.9845  140.9574  161.2525 H       1  UNL1        0.1504
     23 C         139.2222  141.0728  161.5278 C.3     1  UNL1        0.1134
     24 N         138.7441  140.7491  160.1434 N.3     1  UNL1       -0.3163
     25 C         140.0041  140.9871  162.8050 C.3     1  UNL1        0.0552
     26 C         139.7454  141.9680  163.9100 C.3     1  UNL1        0.1440
     27 O         138.7049  143.0346  163.7377 O.3     1  UNL1       -0.3537
     28 C         137.9230  143.1203  162.4605 C.3     1  UNL1        0.1440
     29 C         138.1817  142.1394  161.3555 C.3     1  UNL1        0.0552
     30 H         139.2590  139.9447  159.7853 H       1  UNL1        0.1192
     31 H         138.8999  141.5516  159.5335 H       1  UNL1        0.1192
     32 C         142.8495  138.5974  159.3904 C.1     1  UNL1        0.0927
     33 N         143.2415  138.3051  157.9724 N.1     1  UNL1       -0.1942
@<TRIPOS>BOND
     1    14    15    1
     2    15    16    2
     3    15    17    2
     4    15     8    1
     5     8     9   ar
     6     9    10   ar
     7    10    11   ar
     8    11    12   ar
     9    12     2    1
    10     2     3   ar
    11     3     4   ar
    12     4     5   ar
    13     5     1    1
    14    18     1    1
    15    18    32    1
    16    32    33    3
    17    18    19    1
    18    19    20   am
    19    20    21    2
    20    20    23    1
    21    23    24    1
    22    23    25    1
    23    25    26    1
    24    26    27    1
    25    27    28    1
    26    28    29    1
    27     5     6   ar
    28     6     7   ar
    29    12    13   ar
    30    13     8   ar
    31     7     2   ar
    32    29    23    1
    33    19    22    1
    34    24    30    1
    35    24    31    1
@<TRIPOS>MOLECULE
*****
 33 35 0 0 0
SMALL
GASTEIGER

@<TRIPOS>ATOM
      1 C         138.4371  139.2160  166.5736 C.3     1  UNL1        0.0616
      2 C         138.9090  139.2946  162.0991 C.ar    1  UNL1        0.0000
      3 C         139.4143  138.1219  162.8860 C.ar    1  UNL1       -0.0003
      4 C         139.2570  138.0957  164.3776 C.ar    1  UNL1       -0.0042
      5 C         138.5944  139.2422  165.0821 C.ar    1  UNL1       -0.0194
      6 C         138.0891  140.4150  164.2951 C.ar    1  UNL1       -0.0042
      7 C         138.2464  140.4412  162.8036 C.ar    1  UNL1       -0.0003
      8 C         138.4599  140.3467  158.2989 C.ar    1  UNL1        0.1057
      9 C         139.3807  139.3734  157.6246 C.ar    1  UNL1        0.0183
     10 C         140.1443  138.3738  158.4418 C.ar    1  UNL1        0.0013
     11 C         139.9871  138.3476  159.9332 C.ar    1  UNL1        0.0001
     12 C         139.0662  139.3209  160.6075 C.ar    1  UNL1        0.0013
     13 C         138.3027  140.3205  159.7904 C.ar    1  UNL1        0.0183
     14 C         136.9327  142.3459  156.6645 C.3     1  UNL1        0.1816
     15 S         137.6963  141.3463  157.4817 S.O2    1  UNL1        0.0104
     16 O         137.2431  140.2498  156.5639 O.2     1  UNL1       -0.1686
     17 O         138.1495  142.4428  158.3995 O.2     1  UNL1       -0.1686
     18 C         139.4889  139.8296  167.4495 C.3     1  UNL1        0.1684
     19 N         140.8045  140.2466  166.8620 N.am    1  UNL1       -0.2925
     20 C         140.9937  141.6499  166.3667 C.2     1  UNL1        0.2356
     21 O         139.8672  142.6360  166.4591 O.2     1  UNL1       -0.2737
     22 H         141.5439  139.5994  166.8014 H       1  UNL1        0.1504
     23 C         142.3093  142.0669  165.7792 C.3     1  UNL1        0.1134
     24 N         142.6428  142.1359  167.2400 N.3     1  UNL1       -0.3163
     25 C         141.5189  141.8531  164.5225 C.3     1  UNL1        0.0552
     26 C         142.1600  142.0802  163.1855 C.3     1  UNL1        0.1440
     27 O         143.5914  142.5212  163.1054 O.3     1  UNL1       -0.3537
     28 C         144.3819  142.7351  164.3621 C.3     1  UNL1        0.1440
     29 C         143.7408  142.5079  165.6991 C.3     1  UNL1        0.0552
     30 H         141.8242  141.8723  167.7885 H       1  UNL1        0.1192
     31 H         142.9213  143.0872  167.4807 H       1  UNL1        0.1192
     32 C         139.2251  140.0262  168.9130 C.1     1  UNL1        0.0927
     33 N         138.9613  140.2228  170.3765 N.1     1  UNL1       -0.1942
@<TRIPOS>BOND
     1    14    15    1
     2    15    16    2
     3    15    17    2
     4    15     8    1
     5     8     9   ar
     6     9    10   ar
     7    10    11   ar
     8    11    12   ar
     9    12     2    1
    10     2     3   ar
    11     3     4   ar
    12     4     5   ar
    13     5     1    1
    14    18     1    1
    15    18    32    1
    16    32    33    3
    17    18    19    1
    18    19    20   am
    19    20    21    2
    20    20    23    1
    21    23    24    1
    22    23    25    1
    23    25    26    1
    24    26    27    1
    25    27    28    1
    26    28    29    1
    27     5     6   ar
    28     6     7   ar
    29    12    13   ar
    30    13     8   ar
    31     7     2   ar
    32    29    23    1
    33    19    22    1
    34    24    30    1
    35    24    31    1
