@<TRIPOS>MOLECULE
*****
 26 28 0 0 0
SMALL
GASTEIGER

@<TRIPOS>ATOM
      1 C         140.4170  139.9337  166.5244 C.ar    1  UNL1       -0.0078
      2 C         141.1409  139.9797  165.2115 C.ar    1  UNL1        0.0001
      3 C         140.4095  139.6651  163.9403 C.ar    1  UNL1        0.0366
      4 C         138.9541  139.3045  163.9820 C.ar    1  UNL1        0.1390
      5 C         138.2301  139.2585  165.2949 C.ar    1  UNL1        0.0366
      6 C         138.9616  139.5730  166.5661 C.ar    1  UNL1        0.0001
      7 C         141.7904  141.2881  169.8926 C.3     1  UNL1        0.1315
      8 C         142.7575  140.1765  169.6113 C.3     1  UNL1        0.0268
      9 C         142.3607  139.5339  168.3153 C.3     1  UNL1        0.0221
     10 C         141.1484  140.2483  167.7957 C.3     1  UNL1        0.0772
     11 N         140.7959  141.3324  168.7706 N.3     1  UNL1       -0.2890
     12 H         139.8558  141.1780  169.1349 H       1  UNL1        0.1239
     13 N         142.8928  143.2289  171.2223 N.am    1  UNL1       -0.3277
     14 C         141.8137  142.1959  171.0865 C.2     1  UNL1        0.2336
     15 O         140.7578  142.0708  172.1446 O.2     1  UNL1       -0.2739
     16 H         142.9081  143.8247  172.0059 H       1  UNL1        0.1450
     17 H         143.5858  143.3110  170.5279 H       1  UNL1        0.1450
     18 O         138.2227  138.9899  162.7107 O.3     1  UNL1       -0.4706
     19 C         137.6164  140.0971  161.9006 C.3     1  UNL1        0.2321
     20 C         138.0146  141.5201  162.1588 C.ar    1  UNL1        0.0234
     21 C         138.9755  142.2093  161.2359 C.ar    1  UNL1       -0.0005
     22 C         139.3736  143.6322  161.4941 C.ar    1  UNL1        0.0021
     23 C         138.8110  144.3660  162.6752 C.ar    1  UNL1        0.0296
     24 C         137.8501  143.6768  163.5981 C.ar    1  UNL1        0.1399
     25 F         137.2874  144.4105  164.7792 F       1  UNL1       -0.2042
     26 C         137.4520  142.2539  163.3399 C.ar    1  UNL1        0.0289
@<TRIPOS>BOND
     1    13    14   am
     2    14    15    2
     3     7    14    1
     4     7     8    1
     5     8     9    1
     6     9    10    1
     7    10     1    1
     8     1     2   ar
     9     2     3   ar
    10     3     4   ar
    11     4    18    1
    12    18    19    1
    13    19    20    1
    14    20    21   ar
    15    21    22   ar
    16    22    23   ar
    17    23    24   ar
    18    24    25    1
    19    24    26   ar
    20     4     5   ar
    21     5     6   ar
    22    10    11    1
    23    11     7    1
    24     6     1   ar
    25    26    20   ar
    26    13    16    1
    27    13    17    1
    28    11    12    1
@<TRIPOS>MOLECULE
*****
 26 28 0 0 0
SMALL
GASTEIGER

@<TRIPOS>ATOM
      1 C         141.1607  139.6980  166.4789 C.ar    1  UNL1       -0.0078
      2 C         140.4588  139.8115  165.1582 C.ar    1  UNL1        0.0001
      3 C         141.0969  139.2560  163.9196 C.ar    1  UNL1        0.0366
      4 C         142.4370  138.5871  164.0018 C.ar    1  UNL1        0.1390
      5 C         143.1389  138.4736  165.3225 C.ar    1  UNL1        0.0366
      6 C         142.5007  139.0291  166.5611 C.ar    1  UNL1        0.0001
      7 C         140.0691  141.6392  169.6579 C.3     1  UNL1        0.1315
      8 C         139.0118  140.5774  169.5894 C.3     1  UNL1        0.0268
      9 C         139.2920  139.7210  168.3902 C.3     1  UNL1        0.0221
     10 C         140.5225  140.2535  167.7176 C.3     1  UNL1        0.0772
     11 N         141.0027  141.4391  168.5011 N.3     1  UNL1       -0.2890
     12 H         141.0022  142.2691  167.9082 H       1  UNL1        0.1239
     13 N         140.1046  144.1566  170.2996 N.am    1  UNL1       -0.3277
     14 C         140.1743  142.7128  170.7003 C.2     1  UNL1        0.2336
     15 O         140.3491  142.3425  172.1433 O.2     1  UNL1       -0.2739
     16 H         140.1736  144.8611  170.9838 H       1  UNL1        0.1450
     17 H         139.9898  144.3996  169.3525 H       1  UNL1        0.1450
     18 O         143.0752  138.0316  162.7631 O.3     1  UNL1       -0.4706
     19 C         143.9819  138.8934  161.9355 C.3     1  UNL1        0.2321
     20 C         144.2168  140.3235  162.3226 C.ar    1  UNL1        0.0234
     21 C         145.2018  140.6557  163.4039 C.ar    1  UNL1       -0.0005
     22 C         145.4366  142.0857  163.7911 C.ar    1  UNL1        0.0021
     23 C         144.6864  143.1835  163.0969 C.ar    1  UNL1        0.0296
     24 C         143.7013  142.8513  162.0156 C.ar    1  UNL1        0.1399
     25 F         142.9511  143.9491  161.3214 F       1  UNL1       -0.2042
     26 C         143.4665  141.4213  161.6285 C.ar    1  UNL1        0.0289
@<TRIPOS>BOND
     1    13    14   am
     2    14    15    2
     3     7    14    1
     4     7     8    1
     5     8     9    1
     6     9    10    1
     7    10     1    1
     8     1     2   ar
     9     2     3   ar
    10     3     4   ar
    11     4    18    1
    12    18    19    1
    13    19    20    1
    14    20    21   ar
    15    21    22   ar
    16    22    23   ar
    17    23    24   ar
    18    24    25    1
    19    24    26   ar
    20     4     5   ar
    21     5     6   ar
    22    10    11    1
    23    11     7    1
    24     6     1   ar
    25    26    20   ar
    26    13    16    1
    27    13    17    1
    28    11    12    1
@<TRIPOS>MOLECULE
*****
 26 28 0 0 0
SMALL
GASTEIGER

@<TRIPOS>ATOM
      1 C         142.8227  140.9636  166.8065 C.ar    1  UNL1       -0.0078
      2 C         142.9931  141.6475  165.4825 C.ar    1  UNL1        0.0001
      3 C         143.3482  140.8466  164.2649 C.ar    1  UNL1        0.0366
      4 C         143.5330  139.3619  164.3714 C.ar    1  UNL1        0.1390
      5 C         143.3626  138.6780  165.6955 C.ar    1  UNL1        0.0366
      6 C         143.0075  139.4788  166.9130 C.ar    1  UNL1        0.0001
      7 C         141.2063  143.0229  169.6722 C.3     1  UNL1        0.1315
      8 C         142.6359  142.9706  170.1236 C.3     1  UNL1        0.0268
      9 C         143.4153  142.1929  169.1050 C.3     1  UNL1        0.0221
     10 C         142.4675  141.7644  168.0242 C.3     1  UNL1        0.0772
     11 N         141.1023  142.2774  168.3748 N.3     1  UNL1       -0.2890
     12 H         140.4543  141.4961  168.4754 H       1  UNL1        0.1239
     13 N         139.0473  142.8831  171.1107 N.am    1  UNL1       -0.3277
     14 C         140.0787  143.7014  170.3921 C.2     1  UNL1        0.2336
     15 O         139.9825  145.1984  170.3932 O.2     1  UNL1       -0.2739
     16 H         138.3073  143.3285  171.5832 H       1  UNL1        0.1450
     17 H         139.1104  141.9007  171.1100 H       1  UNL1        0.1450
     18 O         143.8881  138.5610  163.1538 O.3     1  UNL1       -0.4706
     19 C         142.8039  138.0138  162.2735 C.3     1  UNL1        0.2321
     20 C         141.3652  138.2909  162.5952 C.ar    1  UNL1        0.0234
     21 C         140.6193  139.3524  161.8423 C.ar    1  UNL1       -0.0005
     22 C         139.1807  139.6295  162.1640 C.ar    1  UNL1        0.0021
     23 C         138.4880  138.8452  163.2387 C.ar    1  UNL1        0.0296
     24 C         139.2338  137.7837  163.9916 C.ar    1  UNL1        0.1399
     25 F         138.5410  136.9994  165.0663 F       1  UNL1       -0.2042
     26 C         140.6724  137.5066  163.6699 C.ar    1  UNL1        0.0289
@<TRIPOS>BOND
     1    13    14   am
     2    14    15    2
     3     7    14    1
     4     7     8    1
     5     8     9    1
     6     9    10    1
     7    10     1    1
     8     1     2   ar
     9     2     3   ar
    10     3     4   ar
    11     4    18    1
    12    18    19    1
    13    19    20    1
    14    20    21   ar
    15    21    22   ar
    16    22    23   ar
    17    23    24   ar
    18    24    25    1
    19    24    26   ar
    20     4     5   ar
    21     5     6   ar
    22    10    11    1
    23    11     7    1
    24     6     1   ar
    25    26    20   ar
    26    13    16    1
    27    13    17    1
    28    11    12    1
@<TRIPOS>MOLECULE
*****
 26 28 0 0 0
SMALL
GASTEIGER

@<TRIPOS>ATOM
      1 C         139.7795  142.2317  166.0972 C.ar    1  UNL1       -0.0078
      2 C         139.8208  141.4427  164.8222 C.ar    1  UNL1        0.0001
      3 C         139.5776  142.1259  163.5093 C.ar    1  UNL1        0.0366
      4 C         139.2930  143.5982  163.4713 C.ar    1  UNL1        0.1390
      5 C         139.2517  144.3872  164.7463 C.ar    1  UNL1        0.0366
      6 C         139.4949  143.7039  166.0593 C.ar    1  UNL1        0.0001
      7 C         140.6852  141.1317  169.7077 C.3     1  UNL1        0.1315
      8 C         140.1089  139.8623  169.1539 C.3     1  UNL1        0.0268
      9 C         139.6995  140.1199  167.7341 C.3     1  UNL1        0.0221
     10 C         140.0228  141.5484  167.4103 C.3     1  UNL1        0.0772
     11 N         140.6320  142.1737  168.6301 N.3     1  UNL1       -0.2890
     12 H         140.0607  142.9608  168.9376 H       1  UNL1        0.1239
     13 N         142.4590  140.5982  171.5295 N.am    1  UNL1       -0.3277
     14 C         141.2208  141.3250  171.0955 C.2     1  UNL1        0.2336
     15 O         140.5181  142.2452  172.0491 O.2     1  UNL1       -0.2739
     16 H         142.8105  140.7251  172.4404 H       1  UNL1        0.1450
     17 H         142.9202  139.9943  170.9036 H       1  UNL1        0.1450
     18 O         139.0498  144.2814  162.1582 O.3     1  UNL1       -0.4706
     19 C         140.1928  144.9070  161.4152 C.3     1  UNL1        0.2321
     20 C         141.6055  144.5845  161.8029 C.ar    1  UNL1        0.0234
     21 C         142.4033  143.6106  160.9874 C.ar    1  UNL1       -0.0005
     22 C         143.8160  143.2882  161.3751 C.ar    1  UNL1        0.0021
     23 C         144.4309  143.9397  162.5782 C.ar    1  UNL1        0.0296
     24 C         143.6331  144.9136  163.3936 C.ar    1  UNL1        0.1399
     25 F         144.2480  145.5651  164.5967 F       1  UNL1       -0.2042
     26 C         142.2204  145.2360  163.0060 C.ar    1  UNL1        0.0289
@<TRIPOS>BOND
     1    13    14   am
     2    14    15    2
     3     7    14    1
     4     7     8    1
     5     8     9    1
     6     9    10    1
     7    10     1    1
     8     1     2   ar
     9     2     3   ar
    10     3     4   ar
    11     4    18    1
    12    18    19    1
    13    19    20    1
    14    20    21   ar
    15    21    22   ar
    16    22    23   ar
    17    23    24   ar
    18    24    25    1
    19    24    26   ar
    20     4     5   ar
    21     5     6   ar
    22    10    11    1
    23    11     7    1
    24     6     1   ar
    25    26    20   ar
    26    13    16    1
    27    13    17    1
    28    11    12    1
@<TRIPOS>MOLECULE
*****
 26 28 0 0 0
SMALL
GASTEIGER

@<TRIPOS>ATOM
      1 C         139.6041  140.4238  166.1309 C.ar    1  UNL1       -0.0078
      2 C         139.9730  138.9894  165.8937 C.ar    1  UNL1        0.0001
      3 C         139.4687  138.2773  164.6736 C.ar    1  UNL1        0.0366
      4 C         138.5956  138.9996  163.6908 C.ar    1  UNL1        0.1390
      5 C         138.2267  140.4340  163.9281 C.ar    1  UNL1        0.0366
      6 C         138.7310  141.1461  165.1482 C.ar    1  UNL1        0.0001
      7 C         140.8461  141.5920  169.6179 C.3     1  UNL1        0.1315
      8 C         140.9226  142.8718  168.8392 C.3     1  UNL1        0.0268
      9 C         140.4667  142.5899  167.4383 C.3     1  UNL1        0.0221
     10 C         140.1084  141.1359  167.3511 C.3     1  UNL1        0.0772
     11 N         140.3429  140.5192  168.6981 N.3     1  UNL1       -0.2890
     12 H         141.0363  139.7750  168.6222 H       1  UNL1        0.1239
     13 N         142.3122  140.4760  171.4496 N.am    1  UNL1       -0.3277
     14 C         141.2091  141.4159  171.0626 C.2     1  UNL1        0.2336
     15 O         140.4689  142.1796  172.1204 O.2     1  UNL1       -0.2739
     16 H         142.5504  140.3605  172.3978 H       1  UNL1        0.1450
     17 H         142.7980  139.9747  170.7554 H       1  UNL1        0.1450
     18 O         138.0913  138.2874  162.4707 O.3     1  UNL1       -0.4706
     19 C         138.9921  138.0993  161.2862 C.3     1  UNL1        0.2321
     20 C         140.3524  138.7314  161.2704 C.ar    1  UNL1        0.0234
     21 C         140.4989  140.1878  160.9431 C.ar    1  UNL1       -0.0005
     22 C         141.8591  140.8198  160.9273 C.ar    1  UNL1        0.0021
     23 C         143.0728  139.9954  161.2389 C.ar    1  UNL1        0.0296
     24 C         142.9263  138.5389  161.5663 C.ar    1  UNL1        0.1399
     25 F         144.1401  137.7145  161.8779 F       1  UNL1       -0.2042
     26 C         141.5661  137.9069  161.5820 C.ar    1  UNL1        0.0289
@<TRIPOS>BOND
     1    13    14   am
     2    14    15    2
     3     7    14    1
     4     7     8    1
     5     8     9    1
     6     9    10    1
     7    10     1    1
     8     1     2   ar
     9     2     3   ar
    10     3     4   ar
    11     4    18    1
    12    18    19    1
    13    19    20    1
    14    20    21   ar
    15    21    22   ar
    16    22    23   ar
    17    23    24   ar
    18    24    25    1
    19    24    26   ar
    20     4     5   ar
    21     5     6   ar
    22    10    11    1
    23    11     7    1
    24     6     1   ar
    25    26    20   ar
    26    13    16    1
    27    13    17    1
    28    11    12    1
@<TRIPOS>MOLECULE
*****
 26 28 0 0 0
SMALL
GASTEIGER

@<TRIPOS>ATOM
      1 C         142.8159  140.6036  166.5737 C.ar    1  UNL1       -0.0078
      2 C         142.8150  139.1045  166.5224 C.ar    1  UNL1        0.0001
      3 C         143.1129  138.3981  165.2331 C.ar    1  UNL1        0.0366
      4 C         143.4116  139.1908  163.9952 C.ar    1  UNL1        0.1390
      5 C         143.4125  140.6899  164.0465 C.ar    1  UNL1        0.0366
      6 C         143.1146  141.3963  165.3358 C.ar    1  UNL1        0.0001
      7 C         141.4341  141.9909  169.9251 C.3     1  UNL1        0.1315
      8 C         142.6851  142.8037  169.7688 C.3     1  UNL1        0.0268
      9 C         143.3550  142.3829  168.4943 C.3     1  UNL1        0.0221
     10 C         142.5180  141.3101  167.8630 C.3     1  UNL1        0.0772
     11 N         141.3308  141.0678  168.7473 N.3     1  UNL1       -0.2890
     12 H         141.3286  140.0989  169.0660 H       1  UNL1        0.1239
     13 N         139.4438  143.1896  171.0877 N.am    1  UNL1       -0.3277
     14 C         140.4578  142.0847  171.0601 C.2     1  UNL1        0.2336
     15 O         140.4956  141.0736  172.1674 O.2     1  UNL1       -0.2739
     16 H         138.8030  143.2512  171.8326 H       1  UNL1        0.1450
     17 H         139.4190  143.8533  170.3609 H       1  UNL1        0.1450
     18 O         143.7095  138.4843  162.7059 O.3     1  UNL1       -0.4706
     19 C         142.5891  137.9203  161.8835 C.3     1  UNL1        0.2321
     20 C         141.1711  138.3094  162.1805 C.ar    1  UNL1        0.0234
     21 C         140.3120  137.4212  163.0307 C.ar    1  UNL1       -0.0005
     22 C         138.8941  137.8104  163.3276 C.ar    1  UNL1        0.0021
     23 C         138.3354  139.0877  162.7743 C.ar    1  UNL1        0.0296
     24 C         139.1945  139.9760  161.9241 C.ar    1  UNL1        0.1399
     25 F         138.6358  141.2533  161.3708 F       1  UNL1       -0.2042
     26 C         140.6124  139.5868  161.6272 C.ar    1  UNL1        0.0289
@<TRIPOS>BOND
     1    13    14   am
     2    14    15    2
     3     7    14    1
     4     7     8    1
     5     8     9    1
     6     9    10    1
     7    10     1    1
     8     1     2   ar
     9     2     3   ar
    10     3     4   ar
    11     4    18    1
    12    18    19    1
    13    19    20    1
    14    20    21   ar
    15    21    22   ar
    16    22    23   ar
    17    23    24   ar
    18    24    25    1
    19    24    26   ar
    20     4     5   ar
    21     5     6   ar
    22    10    11    1
    23    11     7    1
    24     6     1   ar
    25    26    20   ar
    26    13    16    1
    27    13    17    1
    28    11    12    1
@<TRIPOS>MOLECULE
*****
 26 28 0 0 0
SMALL
GASTEIGER

@<TRIPOS>ATOM
      1 C         139.5673  140.4703  166.1196 C.ar    1  UNL1       -0.0078
      2 C         139.9917  139.0603  165.8339 C.ar    1  UNL1        0.0001
      3 C         139.4826  138.3571  164.6107 C.ar    1  UNL1        0.0366
      4 C         138.5491  139.0639  163.6732 C.ar    1  UNL1        0.1390
      5 C         138.1246  140.4739  163.9589 C.ar    1  UNL1        0.0366
      6 C         138.6337  141.1771  165.1821 C.ar    1  UNL1        0.0001
      7 C         140.8239  141.6129  169.6097 C.3     1  UNL1        0.1315
      8 C         140.8958  142.8987  168.8406 C.3     1  UNL1        0.0268
      9 C         140.4339  142.6271  167.4396 C.3     1  UNL1        0.0221
     10 C         140.0764  141.1735  167.3429 C.3     1  UNL1        0.0772
     11 N         140.3175  140.5467  168.6841 N.3     1  UNL1       -0.2890
     12 H         141.0112  139.8038  168.5993 H       1  UNL1        0.1239
     13 N         142.3013  140.4867  171.4261 N.am    1  UNL1       -0.3277
     14 C         141.1935  141.4261  171.0515 C.2     1  UNL1        0.2336
     15 O         140.4552  142.1785  172.1186 O.2     1  UNL1       -0.2739
     16 H         142.5439  140.3641  172.3723 H       1  UNL1        0.1450
     17 H         142.7859  139.9928  170.7257 H       1  UNL1        0.1450
     18 O         138.0399  138.3606  162.4499 O.3     1  UNL1       -0.4706
     19 C         138.8502  138.3700  161.1876 C.3     1  UNL1        0.2321
     20 C         139.3235  139.6708  160.6098 C.ar    1  UNL1        0.0234
     21 C         140.7571  140.0835  160.7662 C.ar    1  UNL1       -0.0005
     22 C         141.2304  141.3843  160.1884 C.ar    1  UNL1        0.0021
     23 C         140.2701  142.2724  159.4542 C.ar    1  UNL1        0.0296
     24 C         138.8365  141.8597  159.2978 C.ar    1  UNL1        0.1399
     25 F         137.8762  142.7478  158.5635 F       1  UNL1       -0.2042
     26 C         138.3632  140.5589  159.8756 C.ar    1  UNL1        0.0289
@<TRIPOS>BOND
     1    13    14   am
     2    14    15    2
     3     7    14    1
     4     7     8    1
     5     8     9    1
     6     9    10    1
     7    10     1    1
     8     1     2   ar
     9     2     3   ar
    10     3     4   ar
    11     4    18    1
    12    18    19    1
    13    19    20    1
    14    20    21   ar
    15    21    22   ar
    16    22    23   ar
    17    23    24   ar
    18    24    25    1
    19    24    26   ar
    20     4     5   ar
    21     5     6   ar
    22    10    11    1
    23    11     7    1
    24     6     1   ar
    25    26    20   ar
    26    13    16    1
    27    13    17    1
    28    11    12    1
@<TRIPOS>MOLECULE
*****
 26 28 0 0 0
SMALL
GASTEIGER

@<TRIPOS>ATOM
      1 C         140.6882  142.8055  165.3373 C.ar    1  UNL1       -0.0078
      2 C         139.2010  142.9636  165.2223 C.ar    1  UNL1        0.0001
      3 C         138.5739  143.2044  163.8812 C.ar    1  UNL1        0.0366
      4 C         139.4339  143.2872  162.6550 C.ar    1  UNL1        0.1390
      5 C         140.9211  143.1291  162.7700 C.ar    1  UNL1        0.0366
      6 C         141.5482  142.8883  164.1111 C.ar    1  UNL1        0.0001
      7 C         141.6190  142.3165  169.0736 C.3     1  UNL1        0.1315
      8 C         142.9422  142.0716  168.4108 C.3     1  UNL1        0.0268
      9 C         142.7545  142.2249  166.9305 C.3     1  UNL1        0.0221
     10 C         141.3154  142.5647  166.6785 C.3     1  UNL1        0.0772
     11 N         140.6136  142.6213  168.0030 N.3     1  UNL1       -0.2890
     12 H         139.8628  141.9313  168.0266 H       1  UNL1        0.1239
     13 N         142.4025  142.7083  171.5196 N.am    1  UNL1       -0.3277
     14 C         141.3487  142.2657  170.5482 C.2     1  UNL1        0.2336
     15 O         140.0246  141.7722  171.0514 O.2     1  UNL1       -0.2739
     16 H         142.2251  142.6749  172.4874 H       1  UNL1        0.1450
     17 H         143.2716  143.0321  171.1893 H       1  UNL1        0.1450
     18 O         138.8067  143.5280  161.3139 O.3     1  UNL1       -0.4706
     19 C         138.2969  142.3717  160.5058 C.3     1  UNL1        0.2321
     20 C         138.6431  140.9676  160.9043 C.ar    1  UNL1        0.0234
     21 C         137.7229  140.1941  161.8015 C.ar    1  UNL1       -0.0005
     22 C         138.0691  138.7901  162.2000 C.ar    1  UNL1        0.0021
     23 C         139.3355  138.1596  161.7013 C.ar    1  UNL1        0.0296
     24 C         140.2557  138.9330  160.8042 C.ar    1  UNL1        0.1399
     25 F         141.5220  138.3025  160.3055 F       1  UNL1       -0.2042
     26 C         139.9095  140.3371  160.4057 C.ar    1  UNL1        0.0289
@<TRIPOS>BOND
     1    13    14   am
     2    14    15    2
     3     7    14    1
     4     7     8    1
     5     8     9    1
     6     9    10    1
     7    10     1    1
     8     1     2   ar
     9     2     3   ar
    10     3     4   ar
    11     4    18    1
    12    18    19    1
    13    19    20    1
    14    20    21   ar
    15    21    22   ar
    16    22    23   ar
    17    23    24   ar
    18    24    25    1
    19    24    26   ar
    20     4     5   ar
    21     5     6   ar
    22    10    11    1
    23    11     7    1
    24     6     1   ar
    25    26    20   ar
    26    13    16    1
    27    13    17    1
    28    11    12    1
@<TRIPOS>MOLECULE
*****
 26 28 0 0 0
SMALL
GASTEIGER

@<TRIPOS>ATOM
      1 C         142.2675  139.7030  165.7703 C.ar    1  UNL1       -0.0078
      2 C         141.2857  139.3600  164.6894 C.ar    1  UNL1        0.0001
      3 C         141.7396  139.2787  163.2621 C.ar    1  UNL1        0.0366
      4 C         143.1754  139.5404  162.9157 C.ar    1  UNL1        0.1390
      5 C         144.1573  139.8833  163.9965 C.ar    1  UNL1        0.0366
      6 C         143.7033  139.9646  165.4238 C.ar    1  UNL1        0.0001
      7 C         140.4782  140.2380  169.1729 C.3     1  UNL1        0.1315
      8 C         141.7519  139.5808  169.6154 C.3     1  UNL1        0.0268
      9 C         142.5772  139.3004  168.3946 C.3     1  UNL1        0.0221
     10 C         141.8135  139.7843  167.1977 C.3     1  UNL1        0.0772
     11 N         140.5163  140.3638  167.6787 N.3     1  UNL1       -0.2890
     12 H         139.7353  139.8520  167.2682 H       1  UNL1        0.1239
     13 N         139.3339  142.1007  170.5768 N.am    1  UNL1       -0.3277
     14 C         139.3623  140.6901  170.0676 C.2     1  UNL1        0.2336
     15 O         138.2748  139.7315  170.4531 O.2     1  UNL1       -0.2739
     16 H         138.6015  142.3974  171.1640 H       1  UNL1        0.1450
     17 H         140.0476  142.7298  170.3238 H       1  UNL1        0.1450
     18 O         143.6294  139.4591  161.4883 O.3     1  UNL1       -0.4706
     19 C         143.5254  140.6621  160.5985 C.3     1  UNL1        0.2321
     20 C         142.9630  141.9452  161.1347 C.ar    1  UNL1        0.0234
     21 C         141.4988  142.2390  160.9943 C.ar    1  UNL1       -0.0005
     22 C         140.9365  143.5220  161.5305 C.ar    1  UNL1        0.0021
     23 C         141.8384  144.5113  162.2071 C.ar    1  UNL1        0.0296
     24 C         143.3026  144.2176  162.3476 C.ar    1  UNL1        0.1399
     25 F         144.2045  145.2069  163.0242 F       1  UNL1       -0.2042
     26 C         143.8649  142.9346  161.8114 C.ar    1  UNL1        0.0289
@<TRIPOS>BOND
     1    13    14   am
     2    14    15    2
     3     7    14    1
     4     7     8    1
     5     8     9    1
     6     9    10    1
     7    10     1    1
     8     1     2   ar
     9     2     3   ar
    10     3     4   ar
    11     4    18    1
    12    18    19    1
    13    19    20    1
    14    20    21   ar
    15    21    22   ar
    16    22    23   ar
    17    23    24   ar
    18    24    25    1
    19    24    26   ar
    20     4     5   ar
    21     5     6   ar
    22    10    11    1
    23    11     7    1
    24     6     1   ar
    25    26    20   ar
    26    13    16    1
    27    13    17    1
    28    11    12    1
