@<TRIPOS>MOLECULE
*****
 29 33 0 0 0
SMALL
GASTEIGER

@<TRIPOS>ATOM
      1 O         137.5417  139.5980  160.5188 O.2     1  UNL1       -0.2523
      2 C         138.9364  139.2888  160.9764 C.2     1  UNL1        0.3075
      3 N         139.9673  138.8345  159.9861 N.am    1  UNL1       -0.2612
      4 C         141.3619  138.5254  160.4436 C.3     1  UNL1        0.1123
      5 C         142.3930  138.0711  159.4533 C.3     1  UNL1        0.0942
      6 N         142.0292  137.9260  158.0054 N.3     1  UNL1       -0.2660
      7 C         140.6346  138.2350  157.5477 C.3     1  UNL1        0.0942
      8 C         139.6037  138.6893  158.5380 C.3     1  UNL1        0.1123
      9 N         139.3001  139.4340  162.4243 N.am    1  UNL1       -0.2590
     10 C         138.1962  139.8941  163.3297 C.3     1  UNL1        0.1072
     11 C         138.2391  140.1337  164.8099 C.3     1  UNL1        0.0837
     12 S         139.3967  139.9724  165.7501 S.3     1  UNL1       -0.1121
     13 C         140.7971  139.5317  165.4426 C.ar    1  UNL1        0.0229
     14 C         141.6472  139.5058  166.6781 C.ar    1  UNL1        0.0059
     15 C         143.0862  139.0916  166.5898 C.ar    1  UNL1        0.0005
     16 C         143.6750  138.7033  165.2659 C.ar    1  UNL1       -0.0002
     17 C         142.8248  138.7292  164.0304 C.ar    1  UNL1       -0.0021
     18 C         141.3859  139.1433  164.1188 C.ar    1  UNL1        0.0034
     19 C         140.7196  139.0999  162.7755 C.3     1  UNL1        0.1222
     20 C         143.0601  137.4717  157.0150 C.3     1  UNL1        0.0993
     21 C         142.9236  136.1337  156.3507 C.ar    1  UNL1       -0.0029
     22 C         142.8132  136.0456  154.8574 C.ar    1  UNL1        0.0004
     23 C         142.6768  134.7076  154.1930 C.ar    1  UNL1        0.0399
     24 C         142.6507  133.4578  155.0220 C.ar    1  UNL1        0.1764
     25 C         142.7611  133.5459  156.5154 C.ar    1  UNL1        0.1762
     26 C         142.8976  134.8839  157.1797 C.ar    1  UNL1        0.0373
     27 O         142.7060  132.1522  157.0673 O.3     1  UNL1       -0.4346
     28 C         142.5615  131.2028  155.9151 C.3     1  UNL1        0.4294
     29 O         142.5274  132.0097  154.6511 O.3     1  UNL1       -0.4346
@<TRIPOS>BOND
     1     1     2    2
     2     2     3   am
     3     3     4    1
     4     4     5    1
     5     5     6    1
     6     6    20    1
     7    20    21    1
     8    21    22   ar
     9    22    23   ar
    10    23    24   ar
    11    24    25   ar
    12    25    26   ar
    13    25    27    1
    14    27    28    1
    15    28    29    1
    16     6     7    1
    17     7     8    1
    18     2     9   am
    19     9    10    1
    20    10    11    1
    21    11    12    1
    22    12    13    1
    23    13    14   ar
    24    14    15   ar
    25    15    16   ar
    26    16    17   ar
    27    17    18   ar
    28    18    19    1
    29     8     3    1
    30    19     9    1
    31    26    21   ar
    32    18    13   ar
    33    29    24    1
@<TRIPOS>MOLECULE
*****
 29 33 0 0 0
SMALL
GASTEIGER

@<TRIPOS>ATOM
      1 O         139.2630  146.5067  160.7057 O.2     1  UNL1       -0.2523
      2 C         140.3121  145.4371  160.6331 C.2     1  UNL1        0.3075
      3 N         140.7509  144.7308  161.8815 N.am    1  UNL1       -0.2612
      4 C         141.8000  143.6612  161.8089 C.3     1  UNL1        0.1123
      5 C         142.2388  142.9549  163.0574 C.3     1  UNL1        0.0942
      6 N         141.6283  143.3182  164.3785 N.3     1  UNL1       -0.2660
      7 C         140.5792  144.3878  164.4512 C.3     1  UNL1        0.0942
      8 C         140.1405  145.0940  163.2027 C.3     1  UNL1        0.1123
      9 N         140.9225  145.0738  159.3120 N.am    1  UNL1       -0.2590
     10 C         140.4134  145.8399  158.1271 C.3     1  UNL1        0.1072
     11 C         140.8174  145.7139  156.6880 C.3     1  UNL1        0.0837
     12 S         141.8302  144.7906  156.0784 S.3     1  UNL1       -0.1121
     13 C         142.6893  143.7653  156.7572 C.ar    1  UNL1        0.0229
     14 C         143.5713  143.0525  155.7754 C.ar    1  UNL1        0.0059
     15 C         144.5117  141.9846  156.2498 C.ar    1  UNL1        0.0005
     16 C         144.5701  141.6293  157.7060 C.ar    1  UNL1       -0.0002
     17 C         143.6881  142.3421  158.6877 C.ar    1  UNL1       -0.0021
     18 C         142.7477  143.4100  158.2134 C.ar    1  UNL1        0.0034
     19 C         141.9614  143.9924  159.3503 C.3     1  UNL1        0.1222
     20 C         142.0671  142.6120  165.6269 C.3     1  UNL1        0.0993
     21 C         141.1046  141.7326  166.3689 C.ar    1  UNL1       -0.0029
     22 C         141.0667  141.7596  167.8681 C.ar    1  UNL1        0.0004
     23 C         140.1042  140.8803  168.6101 C.ar    1  UNL1        0.0399
     24 C         139.1796  139.9740  167.8527 C.ar    1  UNL1        0.1764
     25 C         139.2175  139.9469  166.3534 C.ar    1  UNL1        0.1762
     26 C         140.1799  140.8263  165.6115 C.ar    1  UNL1        0.0373
     27 O         138.1930  138.9581  165.8817 O.3     1  UNL1       -0.4346
     28 C         137.5220  138.3740  167.0893 C.3     1  UNL1        0.4294
     29 O         138.1318  139.0018  168.3075 O.3     1  UNL1       -0.4346
@<TRIPOS>BOND
     1     1     2    2
     2     2     3   am
     3     3     4    1
     4     4     5    1
     5     5     6    1
     6     6    20    1
     7    20    21    1
     8    21    22   ar
     9    22    23   ar
    10    23    24   ar
    11    24    25   ar
    12    25    26   ar
    13    25    27    1
    14    27    28    1
    15    28    29    1
    16     6     7    1
    17     7     8    1
    18     2     9   am
    19     9    10    1
    20    10    11    1
    21    11    12    1
    22    12    13    1
    23    13    14   ar
    24    14    15   ar
    25    15    16   ar
    26    16    17   ar
    27    17    18   ar
    28    18    19    1
    29     8     3    1
    30    19     9    1
    31    26    21   ar
    32    18    13   ar
    33    29    24    1
@<TRIPOS>MOLECULE
*****
 29 33 0 0 0
SMALL
GASTEIGER

@<TRIPOS>ATOM
      1 O         144.7031  143.5727  166.3605 O.2     1  UNL1       -0.2523
      2 C         143.5747  142.8345  165.7032 C.2     1  UNL1        0.3075
      3 N         143.4587  142.8193  164.2078 N.am    1  UNL1       -0.2612
      4 C         142.3304  142.0812  163.5505 C.3     1  UNL1        0.1123
      5 C         142.2143  142.0660  162.0550 C.3     1  UNL1        0.0942
      6 N         143.2266  142.7890  161.2169 N.3     1  UNL1       -0.2660
      7 C         144.3549  143.5272  161.8741 C.3     1  UNL1        0.0942
      8 C         144.4709  143.5423  163.3695 C.3     1  UNL1        0.1123
      9 N         142.5625  142.1115  166.5413 N.am    1  UNL1       -0.2590
     10 C         142.7705  142.1896  168.0248 C.3     1  UNL1        0.1072
     11 C         141.9435  141.5815  169.1186 C.3     1  UNL1        0.0837
     12 S         140.7042  140.7451  168.9989 S.3     1  UNL1       -0.1121
     13 C         139.9857  140.3101  167.7561 C.ar    1  UNL1        0.0229
     14 C         138.7809  139.4782  168.0822 C.ar    1  UNL1        0.0059
     15 C         137.9197  138.9403  166.9782 C.ar    1  UNL1        0.0005
     16 C         138.2632  139.2344  165.5480 C.ar    1  UNL1       -0.0002
     17 C         139.4679  140.0664  165.2218 C.ar    1  UNL1       -0.0021
     18 C         140.3292  140.6042  166.3258 C.ar    1  UNL1        0.0034
     19 C         141.4760  141.4059  165.7853 C.3     1  UNL1        0.1222
     20 C         143.1106  142.7738  159.7215 C.3     1  UNL1        0.0993
     21 C         142.2508  143.7871  159.0256 C.ar    1  UNL1       -0.0029
     22 C         141.1488  144.4764  159.7742 C.ar    1  UNL1        0.0004
     23 C         140.2889  145.4896  159.0784 C.ar    1  UNL1        0.0399
     24 C         140.5312  145.8135  157.6339 C.ar    1  UNL1        0.1764
     25 C         141.6333  145.1241  156.8853 C.ar    1  UNL1        0.1762
     26 C         142.4930  144.1110  157.5812 C.ar    1  UNL1        0.0373
     27 O         141.6347  145.6454  155.4788 O.3     1  UNL1       -0.4346
     28 C         140.5336  146.6568  155.3581 C.3     1  UNL1        0.4294
     29 O         139.8516  146.7607  156.6900 O.3     1  UNL1       -0.4346
@<TRIPOS>BOND
     1     1     2    2
     2     2     3   am
     3     3     4    1
     4     4     5    1
     5     5     6    1
     6     6    20    1
     7    20    21    1
     8    21    22   ar
     9    22    23   ar
    10    23    24   ar
    11    24    25   ar
    12    25    26   ar
    13    25    27    1
    14    27    28    1
    15    28    29    1
    16     6     7    1
    17     7     8    1
    18     2     9   am
    19     9    10    1
    20    10    11    1
    21    11    12    1
    22    12    13    1
    23    13    14   ar
    24    14    15   ar
    25    15    16   ar
    26    16    17   ar
    27    17    18   ar
    28    18    19    1
    29     8     3    1
    30    19     9    1
    31    26    21   ar
    32    18    13   ar
    33    29    24    1
@<TRIPOS>MOLECULE
*****
 29 33 0 0 0
SMALL
GASTEIGER

@<TRIPOS>ATOM
      1 O         138.9231  145.0986  165.2649 O.2     1  UNL1       -0.2523
      2 C         139.9108  144.1776  164.6120 C.2     1  UNL1        0.3075
      3 N         140.3080  144.3956  163.1821 N.am    1  UNL1       -0.2612
      4 C         141.2956  143.4746  162.5293 C.3     1  UNL1        0.1123
      5 C         141.6929  143.6926  161.0993 C.3     1  UNL1        0.0942
      6 N         141.1023  144.8316  160.3222 N.3     1  UNL1       -0.2660
      7 C         140.1146  145.7526  160.9750 C.3     1  UNL1        0.0942
      8 C         139.7174  145.5346  162.4049 C.3     1  UNL1        0.1123
      9 N         140.5014  143.0387  165.3891 N.am    1  UNL1       -0.2590
     10 C         140.0372  142.9101  166.8097 C.3     1  UNL1        0.1072
     11 C         140.4350  141.8900  167.8350 C.3     1  UNL1        0.0837
     12 S         141.3953  140.7464  167.6928 S.3     1  UNL1       -0.1121
     13 C         142.1949  140.3405  166.4903 C.ar    1  UNL1        0.0229
     14 C         143.0367  139.1320  166.7744 C.ar    1  UNL1        0.0059
     15 C         143.9153  138.5609  165.7012 C.ar    1  UNL1        0.0005
     16 C         143.9521  139.1983  164.3439 C.ar    1  UNL1       -0.0002
     17 C         143.1103  140.4068  164.0598 C.ar    1  UNL1       -0.0021
     18 C         142.2317  140.9779  165.1330 C.ar    1  UNL1        0.0034
     19 C         141.4780  142.1787  164.6430 C.3     1  UNL1        0.1222
     20 C         141.4994  145.0496  158.8923 C.3     1  UNL1        0.0993
     21 C         140.4553  145.0481  157.8153 C.ar    1  UNL1       -0.0029
     22 C         140.2623  146.2624  156.9561 C.ar    1  UNL1        0.0004
     23 C         139.2182  146.2610  155.8791 C.ar    1  UNL1        0.0399
     24 C         138.3671  145.0453  155.6613 C.ar    1  UNL1        0.1764
     25 C         138.5601  143.8309  156.5205 C.ar    1  UNL1        0.1762
     26 C         139.6041  143.8323  157.5975 C.ar    1  UNL1        0.0373
     27 O         137.5790  142.7873  156.0750 O.3     1  UNL1       -0.4346
     28 C         136.7798  143.3566  154.9406 C.3     1  UNL1        0.4294
     29 O         137.2668  144.7521  154.6849 O.3     1  UNL1       -0.4346
@<TRIPOS>BOND
     1     1     2    2
     2     2     3   am
     3     3     4    1
     4     4     5    1
     5     5     6    1
     6     6    20    1
     7    20    21    1
     8    21    22   ar
     9    22    23   ar
    10    23    24   ar
    11    24    25   ar
    12    25    26   ar
    13    25    27    1
    14    27    28    1
    15    28    29    1
    16     6     7    1
    17     7     8    1
    18     2     9   am
    19     9    10    1
    20    10    11    1
    21    11    12    1
    22    12    13    1
    23    13    14   ar
    24    14    15   ar
    25    15    16   ar
    26    16    17   ar
    27    17    18   ar
    28    18    19    1
    29     8     3    1
    30    19     9    1
    31    26    21   ar
    32    18    13   ar
    33    29    24    1
@<TRIPOS>MOLECULE
*****
 29 33 0 0 0
SMALL
GASTEIGER

@<TRIPOS>ATOM
      1 O         138.0430  139.7578  159.4347 O.2     1  UNL1       -0.2523
      2 C         139.4779  139.5156  159.7988 C.2     1  UNL1        0.3075
      3 N         140.3485  138.6838  158.9043 N.am    1  UNL1       -0.2612
      4 C         141.7833  138.4416  159.2684 C.3     1  UNL1        0.1123
      5 C         142.6540  137.6099  158.3739 C.3     1  UNL1        0.0942
      6 N         142.0898  137.0204  157.1153 N.3     1  UNL1       -0.2660
      7 C         140.6550  137.2625  156.7511 C.3     1  UNL1        0.0942
      8 C         139.7844  138.0943  157.6456 C.3     1  UNL1        0.1123
      9 N         140.0420  140.1051  161.0574 N.am    1  UNL1       -0.2590
     10 C         139.0876  140.9195  161.8795 C.3     1  UNL1        0.1072
     11 C         139.3414  141.6323  163.1747 C.3     1  UNL1        0.0837
     12 S         140.6124  141.7065  163.9678 S.3     1  UNL1       -0.1121
     13 C         141.9435  141.0865  163.6616 C.ar    1  UNL1        0.0229
     14 C         142.9550  141.4088  164.7213 C.ar    1  UNL1        0.0059
     15 C         144.3552  140.8835  164.6060 C.ar    1  UNL1        0.0005
     16 C         144.7441  140.0360  163.4311 C.ar    1  UNL1       -0.0002
     17 C         143.7326  139.7138  162.3713 C.ar    1  UNL1       -0.0021
     18 C         142.3323  140.2390  162.4866 C.ar    1  UNL1        0.0034
     19 C         141.4861  139.8023  161.3277 C.3     1  UNL1        0.1222
     20 C         142.9604  136.1887  156.2207 C.3     1  UNL1        0.0993
     21 C         142.9578  134.6942  156.3500 C.ar    1  UNL1       -0.0029
     22 C         141.9395  133.8792  155.6092 C.ar    1  UNL1        0.0004
     23 C         141.9368  132.3847  155.7384 C.ar    1  UNL1        0.0399
     24 C         142.9524  131.7053  156.6084 C.ar    1  UNL1        0.1764
     25 C         143.9707  132.5204  157.3493 C.ar    1  UNL1        0.1762
     26 C         143.9734  134.0148  157.2200 C.ar    1  UNL1        0.0373
     27 O         144.8415  131.5786  158.1269 O.3     1  UNL1       -0.4346
     28 C         144.3615  130.1816  157.8667 C.3     1  UNL1        0.4294
     29 O         143.1940  130.2599  156.9282 O.3     1  UNL1       -0.4346
@<TRIPOS>BOND
     1     1     2    2
     2     2     3   am
     3     3     4    1
     4     4     5    1
     5     5     6    1
     6     6    20    1
     7    20    21    1
     8    21    22   ar
     9    22    23   ar
    10    23    24   ar
    11    24    25   ar
    12    25    26   ar
    13    25    27    1
    14    27    28    1
    15    28    29    1
    16     6     7    1
    17     7     8    1
    18     2     9   am
    19     9    10    1
    20    10    11    1
    21    11    12    1
    22    12    13    1
    23    13    14   ar
    24    14    15   ar
    25    15    16   ar
    26    16    17   ar
    27    17    18   ar
    28    18    19    1
    29     8     3    1
    30    19     9    1
    31    26    21   ar
    32    18    13   ar
    33    29    24    1
@<TRIPOS>MOLECULE
*****
 29 33 0 0 0
SMALL
GASTEIGER

@<TRIPOS>ATOM
      1 O         139.2452  137.9998  160.6006 O.2     1  UNL1       -0.2523
      2 C         139.2724  139.2795  161.3828 C.2     1  UNL1        0.3075
      3 N         139.0793  139.2536  162.8701 N.am    1  UNL1       -0.2612
      4 C         139.1064  140.5332  163.6523 C.3     1  UNL1        0.1123
      5 C         138.9133  140.5074  165.1396 C.3     1  UNL1        0.0942
      6 N         138.6931  139.2018  165.8447 N.3     1  UNL1       -0.2660
      7 C         138.6659  137.9222  165.0625 C.3     1  UNL1        0.0942
      8 C         138.8590  137.9481  163.5753 C.3     1  UNL1        0.1123
      9 N         139.4926  140.5849  160.6778 N.am    1  UNL1       -0.2590
     10 C         139.6745  140.4992  159.1913 C.3     1  UNL1        0.1072
     11 C         139.9106  141.6109  158.2122 C.3     1  UNL1        0.0837
     12 S         140.0231  143.0829  158.4780 S.3     1  UNL1       -0.1121
     13 C         139.9273  143.8068  159.7883 C.ar    1  UNL1        0.0229
     14 C         140.0974  145.2864  159.6106 C.ar    1  UNL1        0.0059
     15 C         140.0355  146.1968  160.8012 C.ar    1  UNL1        0.0005
     16 C         139.8036  145.6274  162.1694 C.ar    1  UNL1       -0.0002
     17 C         139.6335  144.1477  162.3471 C.ar    1  UNL1       -0.0021
     18 C         139.6954  143.2374  161.1565 C.ar    1  UNL1        0.0034
     19 C         139.5019  141.8036  161.5523 C.3     1  UNL1        0.1222
     20 C         138.5000  139.1759  167.3319 C.3     1  UNL1        0.0993
     21 C         139.4352  139.9384  168.2231 C.ar    1  UNL1       -0.0029
     22 C         138.9881  140.3648  169.5899 C.ar    1  UNL1        0.0004
     23 C         139.9234  141.1272  170.4811 C.ar    1  UNL1        0.0399
     24 C         141.3057  141.4631  170.0054 C.ar    1  UNL1        0.1764
     25 C         141.7528  141.0367  168.6385 C.ar    1  UNL1        0.1762
     26 C         140.8175  140.2743  167.7474 C.ar    1  UNL1        0.0373
     27 O         143.1635  141.5080  168.4443 O.3     1  UNL1       -0.4346
     28 C         143.5883  142.2257  169.6910 C.3     1  UNL1        0.4294
     29 O         142.4401  142.1979  170.6558 O.3     1  UNL1       -0.4346
@<TRIPOS>BOND
     1     1     2    2
     2     2     3   am
     3     3     4    1
     4     4     5    1
     5     5     6    1
     6     6    20    1
     7    20    21    1
     8    21    22   ar
     9    22    23   ar
    10    23    24   ar
    11    24    25   ar
    12    25    26   ar
    13    25    27    1
    14    27    28    1
    15    28    29    1
    16     6     7    1
    17     7     8    1
    18     2     9   am
    19     9    10    1
    20    10    11    1
    21    11    12    1
    22    12    13    1
    23    13    14   ar
    24    14    15   ar
    25    15    16   ar
    26    16    17   ar
    27    17    18   ar
    28    18    19    1
    29     8     3    1
    30    19     9    1
    31    26    21   ar
    32    18    13   ar
    33    29    24    1
@<TRIPOS>MOLECULE
*****
 29 33 0 0 0
SMALL
GASTEIGER

@<TRIPOS>ATOM
      1 O         138.9909  145.9057  161.6153 O.2     1  UNL1       -0.2523
      2 C         139.7715  144.6267  161.5450 C.2     1  UNL1        0.3075
      3 N         139.6436  143.6088  162.6393 N.am    1  UNL1       -0.2612
      4 C         140.4242  142.3299  162.5690 C.3     1  UNL1        0.1123
      5 C         140.2963  141.3119  163.6633 C.3     1  UNL1        0.0942
      6 N         139.3878  141.5730  164.8280 N.3     1  UNL1       -0.2660
      7 C         138.6072  142.8519  164.8983 C.3     1  UNL1        0.0942
      8 C         138.7351  143.8698  163.8040 C.3     1  UNL1        0.1123
      9 N         140.6800  144.3656  160.3804 N.am    1  UNL1       -0.2590
     10 C         140.7347  145.4471  159.3423 C.3     1  UNL1        0.1072
     11 C         141.5366  145.4877  158.0753 C.3     1  UNL1        0.0837
     12 S         142.4818  144.4567  157.5334 S.3     1  UNL1       -0.1121
     13 C         142.8587  143.1306  158.1245 C.ar    1  UNL1        0.0229
     14 C         143.8420  142.4032  157.2564 C.ar    1  UNL1        0.0059
     15 C         144.3500  141.0530  157.6674 C.ar    1  UNL1        0.0005
     16 C         143.8747  140.4303  158.9465 C.ar    1  UNL1       -0.0002
     17 C         142.8913  141.1578  159.8147 C.ar    1  UNL1       -0.0021
     18 C         142.3833  142.5079  159.4037 C.ar    1  UNL1        0.0034
     19 C         141.4137  143.0576  160.4076 C.3     1  UNL1        0.1222
     20 C         139.2599  140.5552  165.9223 C.3     1  UNL1        0.0993
     21 C         139.8766  140.8156  167.2647 C.ar    1  UNL1       -0.0029
     22 C         139.3654  140.0957  168.4772 C.ar    1  UNL1        0.0004
     23 C         139.9821  140.3560  169.8196 C.ar    1  UNL1        0.0399
     24 C         141.1100  141.3363  169.9494 C.ar    1  UNL1        0.1764
     25 C         141.6213  142.0562  168.7367 C.ar    1  UNL1        0.1762
     26 C         141.0046  141.7958  167.3944 C.ar    1  UNL1        0.0373
     27 O         142.7372  142.9598  169.1704 O.3     1  UNL1       -0.4346
     28 C         142.9157  142.7985  170.6509 C.3     1  UNL1        0.4294
     29 O         141.9100  141.7950  171.1323 O.3     1  UNL1       -0.4346
@<TRIPOS>BOND
     1     1     2    2
     2     2     3   am
     3     3     4    1
     4     4     5    1
     5     5     6    1
     6     6    20    1
     7    20    21    1
     8    21    22   ar
     9    22    23   ar
    10    23    24   ar
    11    24    25   ar
    12    25    26   ar
    13    25    27    1
    14    27    28    1
    15    28    29    1
    16     6     7    1
    17     7     8    1
    18     2     9   am
    19     9    10    1
    20    10    11    1
    21    11    12    1
    22    12    13    1
    23    13    14   ar
    24    14    15   ar
    25    15    16   ar
    26    16    17   ar
    27    17    18   ar
    28    18    19    1
    29     8     3    1
    30    19     9    1
    31    26    21   ar
    32    18    13   ar
    33    29    24    1
@<TRIPOS>MOLECULE
*****
 29 33 0 0 0
SMALL
GASTEIGER

@<TRIPOS>ATOM
      1 O         139.4112  146.2586  161.1437 O.2     1  UNL1       -0.2523
      2 C         140.5408  145.3178  160.8450 C.2     1  UNL1        0.3075
      3 N         141.2337  144.5985  161.9642 N.am    1  UNL1       -0.2612
      4 C         142.3632  143.6578  161.6655 C.3     1  UNL1        0.1123
      5 C         143.0561  142.9385  162.7846 C.3     1  UNL1        0.0942
      6 N         142.6194  143.1599  164.2025 N.3     1  UNL1       -0.2660
      7 C         141.4899  144.1005  164.5012 C.3     1  UNL1        0.0942
      8 C         140.7970  144.8199  163.3820 C.3     1  UNL1        0.1123
      9 N         140.9775  145.0965  159.4272 N.am    1  UNL1       -0.2590
     10 C         140.2190  145.8639  158.3852 C.3     1  UNL1        0.1072
     11 C         140.4106  145.8614  156.8974 C.3     1  UNL1        0.0837
     12 S         141.4081  145.0908  156.0843 S.3     1  UNL1       -0.1121
     13 C         142.4603  144.1323  156.5580 C.ar    1  UNL1        0.0229
     14 C         143.2511  143.5761  155.4112 C.ar    1  UNL1        0.0059
     15 C         144.3566  142.5955  155.6683 C.ar    1  UNL1        0.0005
     16 C         144.6712  142.1710  157.0722 C.ar    1  UNL1       -0.0002
     17 C         143.8803  142.7271  158.2190 C.ar    1  UNL1       -0.0021
     18 C         142.7749  143.7078  157.9619 C.ar    1  UNL1        0.0034
     19 C         142.1149  144.1370  159.2387 C.3     1  UNL1        0.1222
     20 C         143.3122  142.4406  165.3216 C.3     1  UNL1        0.0993
     21 C         142.5081  141.6979  166.3473 C.ar    1  UNL1       -0.0029
     22 C         141.6468  140.5423  165.9322 C.ar    1  UNL1        0.0004
     23 C         140.8427  139.7996  166.9578 C.ar    1  UNL1        0.0399
     24 C         140.9000  140.2126  168.3987 C.ar    1  UNL1        0.1764
     25 C         141.7615  141.3683  168.8139 C.ar    1  UNL1        0.1762
     26 C         142.5655  142.1109  167.7882 C.ar    1  UNL1        0.0373
     27 O         141.6177  141.5444  170.2965 O.3     1  UNL1       -0.4346
     28 C         140.6674  140.4977  170.7977 C.3     1  UNL1        0.4294
     29 O         140.2239  139.6745  169.6247 O.3     1  UNL1       -0.4346
@<TRIPOS>BOND
     1     1     2    2
     2     2     3   am
     3     3     4    1
     4     4     5    1
     5     5     6    1
     6     6    20    1
     7    20    21    1
     8    21    22   ar
     9    22    23   ar
    10    23    24   ar
    11    24    25   ar
    12    25    26   ar
    13    25    27    1
    14    27    28    1
    15    28    29    1
    16     6     7    1
    17     7     8    1
    18     2     9   am
    19     9    10    1
    20    10    11    1
    21    11    12    1
    22    12    13    1
    23    13    14   ar
    24    14    15   ar
    25    15    16   ar
    26    16    17   ar
    27    17    18   ar
    28    18    19    1
    29     8     3    1
    30    19     9    1
    31    26    21   ar
    32    18    13   ar
    33    29    24    1
@<TRIPOS>MOLECULE
*****
 29 33 0 0 0
SMALL
GASTEIGER

@<TRIPOS>ATOM
      1 O         144.6438  142.5172  159.8119 O.2     1  UNL1       -0.2523
      2 C         143.2545  143.0217  160.0676 C.2     1  UNL1        0.3075
      3 N         142.4012  143.4820  158.9231 N.am    1  UNL1       -0.2612
      4 C         141.0120  143.9865  159.1788 C.3     1  UNL1        0.1123
      5 C         140.1586  144.4469  158.0342 C.3     1  UNL1        0.0942
      6 N         140.6947  144.4027  156.6340 N.3     1  UNL1       -0.2660
      7 C         142.0839  143.8983  156.3782 C.3     1  UNL1        0.0942
      8 C         142.9372  143.4379  157.5228 C.3     1  UNL1        0.1123
      9 N         142.7185  143.0658  161.4678 N.am    1  UNL1       -0.2590
     10 C         143.6525  142.5831  162.5378 C.3     1  UNL1        0.1072
     11 C         143.4181  142.5022  164.0172 C.3     1  UNL1        0.0837
     12 S         142.1917  142.8840  164.7919 S.3     1  UNL1       -0.1121
     13 C         140.8969  143.4411  164.2788 C.ar    1  UNL1        0.0229
     14 C         139.9250  143.6857  165.3948 C.ar    1  UNL1        0.0059
     15 C         138.5649  144.2431  165.0961 C.ar    1  UNL1        0.0005
     16 C         138.1767  144.5559  163.6813 C.ar    1  UNL1       -0.0002
     17 C         139.1486  144.3113  162.5653 C.ar    1  UNL1       -0.0021
     18 C         140.5087  143.7539  162.8641 C.ar    1  UNL1        0.0034
     19 C         141.3195  143.5869  161.6131 C.3     1  UNL1        0.1222
     20 C         139.8414  144.8631  155.4895 C.3     1  UNL1        0.0993
     21 C         139.7755  146.3208  155.1420 C.ar    1  UNL1       -0.0029
     22 C         140.4885  146.8351  153.9266 C.ar    1  UNL1        0.0004
     23 C         140.4226  148.2928  153.5790 C.ar    1  UNL1        0.0399
     24 C         139.6437  149.2362  154.4469 C.ar    1  UNL1        0.1764
     25 C         138.9307  148.7220  155.6623 C.ar    1  UNL1        0.1762
     26 C         138.9966  147.2643  156.0098 C.ar    1  UNL1        0.0373
     27 O         138.2465  149.8815  156.3236 O.3     1  UNL1       -0.4346
     28 C         138.5366  151.1124  155.5170 C.3     1  UNL1        0.4294
     29 O         139.4002  150.7136  154.3571 O.3     1  UNL1       -0.4346
@<TRIPOS>BOND
     1     1     2    2
     2     2     3   am
     3     3     4    1
     4     4     5    1
     5     5     6    1
     6     6    20    1
     7    20    21    1
     8    21    22   ar
     9    22    23   ar
    10    23    24   ar
    11    24    25   ar
    12    25    26   ar
    13    25    27    1
    14    27    28    1
    15    28    29    1
    16     6     7    1
    17     7     8    1
    18     2     9   am
    19     9    10    1
    20    10    11    1
    21    11    12    1
    22    12    13    1
    23    13    14   ar
    24    14    15   ar
    25    15    16   ar
    26    16    17   ar
    27    17    18   ar
    28    18    19    1
    29     8     3    1
    30    19     9    1
    31    26    21   ar
    32    18    13   ar
    33    29    24    1
