@<TRIPOS>MOLECULE
*****
 37 43 0 0 0
SMALL
GASTEIGER

@<TRIPOS>ATOM
      1 C         138.5148  141.8784  164.4472 C.3     1  UNL1        0.0955
      2 C         138.9717  143.1547  165.0895 C.3     1  UNL1        0.0287
      3 C         138.9810  144.4302  164.3001 C.3     1  UNL1        0.0193
      4 C         138.5335  144.4294  162.8685 C.3     1  UNL1        0.0700
      5 C         138.0765  143.1532  162.2262 C.3     1  UNL1        0.0193
      6 C         138.0672  141.8777  163.0155 C.3     1  UNL1        0.0287
      7 C         138.5108  143.7057  163.2607 C.3     1  UNL1        0.1562
      8 O         138.5023  142.5525  163.9744 O.3     1  UNL1       -0.3571
      9 N         138.5428  145.7049  162.0791 N.3     1  UNL1       -0.2926
     10 H         138.2491  146.4467  162.7146 H       1  UNL1        0.1236
     11 C         139.8086  146.1720  161.4239 C.3     1  UNL1        0.1152
     12 C         140.8797  145.1829  161.0710 C.ar    1  UNL1        0.0756
     13 C         141.9376  144.8328  162.0752 C.ar    1  UNL1        0.0254
     14 C         143.0087  143.8437  161.7223 C.ar    1  UNL1        0.0653
     15 C         143.0219  143.2048  160.3652 C.ar    1  UNL1        0.1646
     16 C         141.9640  143.5549  159.3611 C.ar    1  UNL1        0.1358
     17 N         140.8930  144.5440  159.7140 N.ar    1  UNL1       -0.2436
     18 O         144.1949  142.2720  160.3035 O.3     1  UNL1       -0.4611
     19 C         144.9066  142.3344  161.6224 C.3     1  UNL1        0.2681
     20 S         144.1735  143.3058  162.4992 S.3     1  UNL1       -0.0640
     21 C         138.5054  140.6030  165.2365 C.3     1  UNL1        0.0604
     22 O         138.8800  140.9617  170.3369 O.2     1  UNL1       -0.2670
     23 C         140.0879  140.3359  169.7051 C.ar    1  UNL1        0.2611
     24 C         141.2372  139.8925  170.5610 C.ar    1  UNL1        0.0623
     25 C         142.4452  139.2667  169.9292 C.ar    1  UNL1        0.0254
     26 C         142.5038  139.0842  168.4415 C.ar    1  UNL1        0.0972
     27 N         143.5679  138.4980  167.5501 N.ar    1  UNL1       -0.2400
     28 C         143.4840  138.3810  166.0570 C.ar    1  UNL1        0.1282
     29 C         142.2645  138.8707  165.3338 C.ar    1  UNL1        0.1588
     30 F         142.1806  138.7538  163.8407 F       1  UNL1       -0.2027
     31 C         141.1290  139.4774  166.1035 C.ar    1  UNL1        0.0500
     32 C         141.3546  139.5276  167.5856 C.ar    1  UNL1        0.0806
     33 N         140.1466  140.1534  168.2174 N.ar    1  UNL1       -0.2915
     34 C         139.1745  140.4900  167.1258 C.3     1  UNL1        0.1402
     35 C         139.7816  140.0723  165.8193 C.3     1  UNL1        0.1335
     36 O         140.1220  139.7654  164.3910 O.3     1  UNL1       -0.3806
     37 H         139.3912  140.0443  163.8174 H       1  UNL1        0.2108
@<TRIPOS>BOND
     1    22    23    2
     2    23    24   ar
     3    24    25   ar
     4    25    26   ar
     5    26    27   ar
     6    27    28   ar
     7    28    29   ar
     8    29    30    1
     9    29    31   ar
    10    31    32   ar
    11    32    33   ar
    12    33    34    1
    13    34    35    1
    14    35    36    1
    15    35    21    1
    16    21     1    1
    17     1     2    1
    18     2     3    1
    19     3     4    1
    20     4     9    1
    21     9    11    1
    22    11    12    1
    23    12    13   ar
    24    13    14   ar
    25    14    15   ar
    26    15    16   ar
    27    16    17   ar
    28    15    18    1
    29    18    19    1
    30    19    20    1
    31     4     5    1
    32     5     6    1
    33     4     7    1
    34     7     8    1
    35    33    23   ar
    36     6     1    1
    37    32    26   ar
    38     8     1    1
    39    35    31    1
    40    17    12   ar
    41    20    14    1
    42    36    37    1
    43     9    10    1
@<TRIPOS>MOLECULE
*****
 37 43 0 0 0
SMALL
GASTEIGER

@<TRIPOS>ATOM
      1 C         143.1376  142.8117  164.2042 C.3     1  UNL1        0.0955
      2 C         143.4882  142.3216  162.8304 C.3     1  UNL1        0.0287
      3 C         143.1162  143.1351  161.6263 C.3     1  UNL1        0.0193
      4 C         142.3938  144.4387  161.7958 C.3     1  UNL1        0.0700
      5 C         142.0432  144.9287  163.1695 C.3     1  UNL1        0.0193
      6 C         142.4151  144.1153  164.3737 C.3     1  UNL1        0.0287
      7 C         142.5767  144.0278  162.4856 C.3     1  UNL1        0.1562
      8 O         142.9130  143.2922  163.5744 O.3     1  UNL1       -0.3571
      9 N         142.0218  145.2522  160.5917 N.3     1  UNL1       -0.2926
     10 H         142.7468  145.0915  159.8924 H       1  UNL1        0.1236
     11 C         140.7051  145.0245  159.9104 C.3     1  UNL1        0.1152
     12 C         139.7785  143.9547  160.4075 C.ar    1  UNL1        0.0756
     13 C         139.7391  142.6197  159.7247 C.ar    1  UNL1        0.0254
     14 C         138.8125  141.5500  160.2218 C.ar    1  UNL1        0.0653
     15 C         137.9253  141.8153  161.4019 C.ar    1  UNL1        0.1646
     16 C         137.9647  143.1502  162.0847 C.ar    1  UNL1        0.1358
     17 N         138.8913  144.2199  161.5876 N.ar    1  UNL1       -0.2436
     18 O         137.1208  140.5768  161.6645 O.3     1  UNL1       -0.4611
     19 C         137.5108  139.5463  160.6468 C.3     1  UNL1        0.2681
     20 S         138.5563  140.1477  159.7552 S.3     1  UNL1       -0.0640
     21 C         143.5095  141.9982  165.4083 C.3     1  UNL1        0.0604
     22 O         144.0033  143.2927  170.3442 O.2     1  UNL1       -0.2670
     23 C         142.7958  142.4425  170.0813 C.ar    1  UNL1        0.2611
     24 C         141.8858  142.0622  171.2114 C.ar    1  UNL1        0.0623
     25 C         140.6783  141.2120  170.9485 C.ar    1  UNL1        0.0254
     26 C         140.3808  140.7421  169.5555 C.ar    1  UNL1        0.0972
     27 N         139.2623  139.8947  169.0067 N.ar    1  UNL1       -0.2400
     28 C         139.0942  139.5016  167.5689 C.ar    1  UNL1        0.1282
     29 C         140.0900  139.9595  166.5449 C.ar    1  UNL1        0.1588
     30 F         139.9220  139.5664  165.1071 F       1  UNL1       -0.2027
     31 C         141.2540  140.8104  166.9586 C.ar    1  UNL1        0.0500
     32 C         141.2908  141.1224  168.4254 C.ar    1  UNL1        0.0806
     33 N         142.4983  141.9726  168.6883 N.ar    1  UNL1       -0.2915
     34 C         143.2077  142.1860  167.3840 C.3     1  UNL1        0.1402
     35 C         142.4387  141.4678  166.3150 C.3     1  UNL1        0.1335
     36 O         141.8935  140.8604  165.0565 O.3     1  UNL1       -0.3806
     37 H         142.4674  141.0936  164.3100 H       1  UNL1        0.2108
@<TRIPOS>BOND
     1    22    23    2
     2    23    24   ar
     3    24    25   ar
     4    25    26   ar
     5    26    27   ar
     6    27    28   ar
     7    28    29   ar
     8    29    30    1
     9    29    31   ar
    10    31    32   ar
    11    32    33   ar
    12    33    34    1
    13    34    35    1
    14    35    36    1
    15    35    21    1
    16    21     1    1
    17     1     2    1
    18     2     3    1
    19     3     4    1
    20     4     9    1
    21     9    11    1
    22    11    12    1
    23    12    13   ar
    24    13    14   ar
    25    14    15   ar
    26    15    16   ar
    27    16    17   ar
    28    15    18    1
    29    18    19    1
    30    19    20    1
    31     4     5    1
    32     5     6    1
    33     4     7    1
    34     7     8    1
    35    33    23   ar
    36     6     1    1
    37    32    26   ar
    38     8     1    1
    39    35    31    1
    40    17    12   ar
    41    20    14    1
    42    36    37    1
    43     9    10    1
@<TRIPOS>MOLECULE
*****
 37 43 0 0 0
SMALL
GASTEIGER

@<TRIPOS>ATOM
      1 C         138.4918  139.3191  164.7924 C.3     1  UNL1        0.0955
      2 C         137.8699  140.6836  164.7501 C.3     1  UNL1        0.0287
      3 C         137.5421  141.3178  163.4309 C.3     1  UNL1        0.0193
      4 C         137.8360  140.5877  162.1540 C.3     1  UNL1        0.0700
      5 C         138.4578  139.2234  162.1963 C.3     1  UNL1        0.0193
      6 C         138.7857  138.5890  163.5154 C.3     1  UNL1        0.0287
      7 C         138.0335  140.1995  162.8529 C.3     1  UNL1        0.1562
      8 O         138.3299  139.6260  164.0456 O.3     1  UNL1       -0.3571
      9 N         137.5081  141.2220  160.8348 N.3     1  UNL1       -0.2926
     10 H         136.6301  141.7257  160.9604 H       1  UNL1        0.1236
     11 C         138.4722  142.1828  160.2045 C.3     1  UNL1        0.1152
     12 C         139.2950  143.0937  161.0666 C.ar    1  UNL1        0.0756
     13 C         140.7528  142.8112  161.2790 C.ar    1  UNL1        0.0254
     14 C         141.5755  143.7222  162.1411 C.ar    1  UNL1        0.0653
     15 C         140.9404  144.9157  162.7909 C.ar    1  UNL1        0.1646
     16 C         139.4827  145.1982  162.5786 C.ar    1  UNL1        0.1358
     17 N         138.6600  144.2872  161.7164 N.ar    1  UNL1       -0.2436
     18 O         141.9964  145.6295  163.5817 O.3     1  UNL1       -0.4611
     19 C         143.2840  144.8772  163.4206 C.3     1  UNL1        0.2681
     20 S         143.0239  143.6984  162.5303 S.3     1  UNL1       -0.0640
     21 C         138.8196  138.6848  166.1115 C.3     1  UNL1        0.0604
     22 O         143.2559  141.0480  165.1030 O.2     1  UNL1       -0.2670
     23 C         142.7439  141.3316  166.4841 C.ar    1  UNL1        0.2611
     24 C         143.5208  142.2272  167.4029 C.ar    1  UNL1        0.0623
     25 C         143.0087  142.5108  168.7840 C.ar    1  UNL1        0.0254
     26 C         141.7197  141.8986  169.2463 C.ar    1  UNL1        0.0972
     27 N         140.9781  142.0045  170.5536 N.ar    1  UNL1       -0.2400
     28 C         139.6802  141.3246  170.8746 C.ar    1  UNL1        0.1282
     29 C         139.0162  140.4536  169.8497 C.ar    1  UNL1        0.1588
     30 F         137.7183  139.7736  170.1707 F       1  UNL1       -0.2027
     31 C         139.6502  140.2626  168.5037 C.ar    1  UNL1        0.0500
     32 C         140.9428  141.0030  168.3275 C.ar    1  UNL1        0.0806
     33 N         141.4549  140.7194  166.9465 N.ar    1  UNL1       -0.2915
     34 C         140.4787  139.8038  166.2691 C.3     1  UNL1        0.1402
     35 C         139.3634  139.5215  167.2315 C.3     1  UNL1        0.1335
     36 O         138.1343  139.0643  167.9598 O.3     1  UNL1       -0.3806
     37 H         137.6148  138.4821  167.3835 H       1  UNL1        0.2108
@<TRIPOS>BOND
     1    22    23    2
     2    23    24   ar
     3    24    25   ar
     4    25    26   ar
     5    26    27   ar
     6    27    28   ar
     7    28    29   ar
     8    29    30    1
     9    29    31   ar
    10    31    32   ar
    11    32    33   ar
    12    33    34    1
    13    34    35    1
    14    35    36    1
    15    35    21    1
    16    21     1    1
    17     1     2    1
    18     2     3    1
    19     3     4    1
    20     4     9    1
    21     9    11    1
    22    11    12    1
    23    12    13   ar
    24    13    14   ar
    25    14    15   ar
    26    15    16   ar
    27    16    17   ar
    28    15    18    1
    29    18    19    1
    30    19    20    1
    31     4     5    1
    32     5     6    1
    33     4     7    1
    34     7     8    1
    35    33    23   ar
    36     6     1    1
    37    32    26   ar
    38     8     1    1
    39    35    31    1
    40    17    12   ar
    41    20    14    1
    42    36    37    1
    43     9    10    1
@<TRIPOS>MOLECULE
*****
 37 43 0 0 0
SMALL
GASTEIGER

@<TRIPOS>ATOM
      1 C         143.1331  142.6687  164.4416 C.3     1  UNL1        0.0955
      2 C         143.4445  142.1625  163.0642 C.3     1  UNL1        0.0287
      3 C         143.1122  142.9995  161.8647 C.3     1  UNL1        0.0193
      4 C         142.4684  144.3426  162.0423 C.3     1  UNL1        0.0700
      5 C         142.1571  144.8488  163.4196 C.3     1  UNL1        0.0193
      6 C         142.4894  144.0119  164.6192 C.3     1  UNL1        0.0287
      7 C         142.6320  143.9200  162.7299 C.3     1  UNL1        0.1562
      8 O         142.9325  143.1632  163.8145 O.3     1  UNL1       -0.3571
      9 N         142.1361  145.1796  160.8427 N.3     1  UNL1       -0.2926
     10 H         142.8185  144.9452  160.1219 H       1  UNL1        0.1236
     11 C         140.7815  145.0747  160.2071 C.3     1  UNL1        0.1152
     12 C         139.8282  144.0028  160.6457 C.ar    1  UNL1        0.0756
     13 C         139.8383  142.6659  159.9657 C.ar    1  UNL1        0.0254
     14 C         138.8849  141.5941  160.4044 C.ar    1  UNL1        0.0653
     15 C         137.9215  141.8592  161.5231 C.ar    1  UNL1        0.1646
     16 C         137.9115  143.1962  162.2031 C.ar    1  UNL1        0.1358
     17 N         138.8648  144.2680  161.7645 N.ar    1  UNL1       -0.2436
     18 O         137.1059  140.6185  161.7362 O.3     1  UNL1       -0.4611
     19 C         137.5653  139.5867  160.7492 C.3     1  UNL1        0.2681
     20 S         138.6647  140.1896  159.9261 S.3     1  UNL1       -0.0640
     21 C         143.4655  141.8317  165.6412 C.3     1  UNL1        0.0604
     22 O         139.8020  138.9456  163.5124 O.2     1  UNL1       -0.2670
     23 C         139.5743  139.1942  164.9740 C.ar    1  UNL1        0.2611
     24 C         138.3692  138.6155  165.6543 C.ar    1  UNL1        0.0623
     25 C         138.1414  138.8641  167.1159 C.ar    1  UNL1        0.0254
     26 C         139.1187  139.6913  167.8972 C.ar    1  UNL1        0.0972
     27 N         139.1452  140.0977  169.3479 N.ar    1  UNL1       -0.2400
     28 C         140.2037  140.9403  169.9957 C.ar    1  UNL1        0.1282
     29 C         141.3569  141.4509  169.1837 C.ar    1  UNL1        0.1588
     30 F         142.4154  142.2935  169.8315 F       1  UNL1       -0.2027
     31 C         141.4518  141.1188  167.7240 C.ar    1  UNL1        0.0500
     32 C         140.3238  140.2700  167.2169 C.ar    1  UNL1        0.0806
     33 N         140.5516  140.0214  165.7553 N.ar    1  UNL1       -0.2915
     34 C         141.8203  140.7166  165.3591 C.3     1  UNL1        0.1402
     35 C         142.3767  141.3948  166.5758 C.3     1  UNL1        0.1335
     36 O         143.1607  142.1644  167.5972 O.3     1  UNL1       -0.3806
     37 H         143.9469  142.5488  167.1789 H       1  UNL1        0.2108
@<TRIPOS>BOND
     1    22    23    2
     2    23    24   ar
     3    24    25   ar
     4    25    26   ar
     5    26    27   ar
     6    27    28   ar
     7    28    29   ar
     8    29    30    1
     9    29    31   ar
    10    31    32   ar
    11    32    33   ar
    12    33    34    1
    13    34    35    1
    14    35    36    1
    15    35    21    1
    16    21     1    1
    17     1     2    1
    18     2     3    1
    19     3     4    1
    20     4     9    1
    21     9    11    1
    22    11    12    1
    23    12    13   ar
    24    13    14   ar
    25    14    15   ar
    26    15    16   ar
    27    16    17   ar
    28    15    18    1
    29    18    19    1
    30    19    20    1
    31     4     5    1
    32     5     6    1
    33     4     7    1
    34     7     8    1
    35    33    23   ar
    36     6     1    1
    37    32    26   ar
    38     8     1    1
    39    35    31    1
    40    17    12   ar
    41    20    14    1
    42    36    37    1
    43     9    10    1
@<TRIPOS>MOLECULE
*****
 37 43 0 0 0
SMALL
GASTEIGER

@<TRIPOS>ATOM
      1 C         138.7665  139.0191  164.1411 C.3     1  UNL1        0.0955
      2 C         138.0926  140.3257  163.8431 C.3     1  UNL1        0.0287
      3 C         137.5537  140.5955  162.4695 C.3     1  UNL1        0.0193
      4 C         137.6888  139.5588  161.3938 C.3     1  UNL1        0.0700
      5 C         138.3627  138.2523  161.6918 C.3     1  UNL1        0.0193
      6 C         138.9016  137.9824  163.0655 C.3     1  UNL1        0.0287
      7 C         137.9998  139.3654  162.1314 C.3     1  UNL1        0.1562
      8 O         138.4870  139.1215  163.3734 O.3     1  UNL1       -0.3571
      9 N         137.1499  139.8287  160.0202 N.3     1  UNL1       -0.2926
     10 H         136.3466  140.4466  160.1352 H       1  UNL1        0.1236
     11 C         138.0305  140.4524  158.9784 C.3     1  UNL1        0.1152
     12 C         139.0883  141.4366  159.3818 C.ar    1  UNL1        0.0756
     13 C         140.4793  140.9620  159.6812 C.ar    1  UNL1        0.0254
     14 C         141.5370  141.9462  160.0846 C.ar    1  UNL1        0.0653
     15 C         141.2036  143.4049  160.1886 C.ar    1  UNL1        0.1646
     16 C         139.8125  143.8795  159.8893 C.ar    1  UNL1        0.1358
     17 N         138.7548  142.8953  159.4858 N.ar    1  UNL1       -0.2436
     18 O         142.4451  144.1355  160.6067 O.3     1  UNL1       -0.4611
     19 C         143.5458  143.1282  160.7610 C.3     1  UNL1        0.2681
     20 S         142.9846  141.7752  160.4384 S.3     1  UNL1       -0.0640
     21 C         139.3054  138.7493  165.5147 C.3     1  UNL1        0.0604
     22 O         138.1302  140.0636  170.3287 O.2     1  UNL1       -0.2670
     23 C         139.3706  140.7399  169.8248 C.ar    1  UNL1        0.2611
     24 C         140.1217  141.6873  170.7127 C.ar    1  UNL1        0.0623
     25 C         141.3621  142.3636  170.2088 C.ar    1  UNL1        0.0254
     26 C         141.8515  142.0926  168.8170 C.ar    1  UNL1        0.0972
     27 N         143.0427  142.6185  168.0589 N.ar    1  UNL1       -0.2400
     28 C         143.4092  142.2510  166.6516 C.ar    1  UNL1        0.1282
     29 C         142.5578  141.2844  165.8830 C.ar    1  UNL1        0.1588
     30 F         142.9243  140.9169  164.4756 F       1  UNL1       -0.2027
     31 C         141.3400  140.6852  166.5217 C.ar    1  UNL1        0.0500
     32 C         141.1004  141.1453  167.9291 C.ar    1  UNL1        0.0806
     33 N         139.8600  140.4689  168.4330 N.ar    1  UNL1       -0.2915
     34 C         139.3330  139.5909  167.3369 C.3     1  UNL1        0.1402
     35 C         140.2477  139.7246  166.1557 C.3     1  UNL1        0.1335
     36 O         140.9654  139.6544  164.8404 O.3     1  UNL1       -0.3806
     37 H         140.4964  139.0459  164.2482 H       1  UNL1        0.2108
@<TRIPOS>BOND
     1    22    23    2
     2    23    24   ar
     3    24    25   ar
     4    25    26   ar
     5    26    27   ar
     6    27    28   ar
     7    28    29   ar
     8    29    30    1
     9    29    31   ar
    10    31    32   ar
    11    32    33   ar
    12    33    34    1
    13    34    35    1
    14    35    36    1
    15    35    21    1
    16    21     1    1
    17     1     2    1
    18     2     3    1
    19     3     4    1
    20     4     9    1
    21     9    11    1
    22    11    12    1
    23    12    13   ar
    24    13    14   ar
    25    14    15   ar
    26    15    16   ar
    27    16    17   ar
    28    15    18    1
    29    18    19    1
    30    19    20    1
    31     4     5    1
    32     5     6    1
    33     4     7    1
    34     7     8    1
    35    33    23   ar
    36     6     1    1
    37    32    26   ar
    38     8     1    1
    39    35    31    1
    40    17    12   ar
    41    20    14    1
    42    36    37    1
    43     9    10    1
@<TRIPOS>MOLECULE
*****
 37 43 0 0 0
SMALL
GASTEIGER

@<TRIPOS>ATOM
      1 C         138.3114  141.7075  164.7011 C.3     1  UNL1        0.0955
      2 C         139.2419  142.6470  165.4095 C.3     1  UNL1        0.0287
      3 C         140.1192  142.1411  166.5161 C.3     1  UNL1        0.0193
      4 C         140.0661  140.6959  166.9141 C.3     1  UNL1        0.0700
      5 C         139.1357  139.7565  166.2057 C.3     1  UNL1        0.0193
      6 C         138.2583  140.2623  165.0991 C.3     1  UNL1        0.0287
      7 C         139.5663  140.9267  166.3018 C.3     1  UNL1        0.1562
      8 O         138.7730  141.3841  165.3013 O.3     1  UNL1       -0.3571
      9 N         140.9434  140.1900  168.0207 N.3     1  UNL1       -0.2926
     10 H         140.3986  139.4983  168.5356 H       1  UNL1        0.1236
     11 C         142.2620  139.5509  167.6997 C.3     1  UNL1        0.1152
     12 C         142.8572  139.7059  166.3316 C.ar    1  UNL1        0.0756
     13 C         143.5469  140.9832  165.9539 C.ar    1  UNL1        0.0254
     14 C         144.1421  141.1380  164.5857 C.ar    1  UNL1        0.0653
     15 C         144.0476  140.0155  163.5953 C.ar    1  UNL1        0.1646
     16 C         143.3579  138.7382  163.9730 C.ar    1  UNL1        0.1358
     17 N         142.7627  138.5833  165.3411 N.ar    1  UNL1       -0.2436
     18 O         144.7239  140.4550  162.3307 O.3     1  UNL1       -0.4611
     19 C         145.2365  141.8492  162.5396 C.3     1  UNL1        0.2681
     20 S         144.8769  142.2713  163.9332 S.3     1  UNL1       -0.0640
     21 C         137.4341  142.2134  163.5945 C.3     1  UNL1        0.0604
     22 O         140.3049  146.1496  161.9984 O.2     1  UNL1       -0.2670
     23 C         140.0870  145.1160  160.9335 C.ar    1  UNL1        0.2611
     24 C         140.6879  145.3035  159.5720 C.ar    1  UNL1        0.0623
     25 C         140.4700  144.2699  158.5071 C.ar    1  UNL1        0.0254
     26 C         139.6510  143.0487  158.8036 C.ar    1  UNL1        0.0972
     27 N         139.2732  141.8691  157.9456 N.ar    1  UNL1       -0.2400
     28 C         138.4357  140.7056  158.3869 C.ar    1  UNL1        0.1282
     29 C         137.9006  140.6552  159.7873 C.ar    1  UNL1        0.1588
     30 F         137.0630  139.4917  160.2286 F       1  UNL1       -0.2027
     31 C         138.2030  141.7682  160.7464 C.ar    1  UNL1        0.0500
     32 C         139.0501  142.8611  160.1650 C.ar    1  UNL1        0.0806
     33 N         139.2680  143.8947  161.2300 N.ar    1  UNL1       -0.2915
     34 C         138.5557  143.4406  162.4695 C.3     1  UNL1        0.1402
     35 C         137.8975  142.1262  162.1706 C.3     1  UNL1        0.1335
     36 O         137.1424  140.8302  162.1693 O.3     1  UNL1       -0.3806
     37 H         136.7439  140.6873  163.0421 H       1  UNL1        0.2108
@<TRIPOS>BOND
     1    22    23    2
     2    23    24   ar
     3    24    25   ar
     4    25    26   ar
     5    26    27   ar
     6    27    28   ar
     7    28    29   ar
     8    29    30    1
     9    29    31   ar
    10    31    32   ar
    11    32    33   ar
    12    33    34    1
    13    34    35    1
    14    35    36    1
    15    35    21    1
    16    21     1    1
    17     1     2    1
    18     2     3    1
    19     3     4    1
    20     4     9    1
    21     9    11    1
    22    11    12    1
    23    12    13   ar
    24    13    14   ar
    25    14    15   ar
    26    15    16   ar
    27    16    17   ar
    28    15    18    1
    29    18    19    1
    30    19    20    1
    31     4     5    1
    32     5     6    1
    33     4     7    1
    34     7     8    1
    35    33    23   ar
    36     6     1    1
    37    32    26   ar
    38     8     1    1
    39    35    31    1
    40    17    12   ar
    41    20    14    1
    42    36    37    1
    43     9    10    1
@<TRIPOS>MOLECULE
*****
 37 43 0 0 0
SMALL
GASTEIGER

@<TRIPOS>ATOM
      1 C         138.7262  138.9203  164.1275 C.3     1  UNL1        0.0955
      2 C         138.1250  140.2487  163.7753 C.3     1  UNL1        0.0287
      3 C         137.6220  140.4993  162.3846 C.3     1  UNL1        0.0193
      4 C         137.7202  139.4215  161.3460 C.3     1  UNL1        0.0700
      5 C         138.3214  138.0931  161.6982 C.3     1  UNL1        0.0193
      6 C         138.8244  137.8425  163.0889 C.3     1  UNL1        0.0287
      7 C         138.0094  139.2374  162.0947 C.3     1  UNL1        0.1562
      8 O         138.4642  139.0109  163.3522 O.3     1  UNL1       -0.3571
      9 N         137.2173  139.6720  159.9552 N.3     1  UNL1       -0.2926
     10 H         136.4041  140.2816  160.0415 H       1  UNL1        0.1236
     11 C         138.1197  140.2961  158.9325 C.3     1  UNL1        0.1152
     12 C         139.4669  139.6972  158.6558 C.ar    1  UNL1        0.0756
     13 C         139.6022  138.5821  157.6617 C.ar    1  UNL1        0.0254
     14 C         140.9494  137.9833  157.3851 C.ar    1  UNL1        0.0653
     15 C         142.1613  138.4996  158.1025 C.ar    1  UNL1        0.1646
     16 C         142.0260  139.6148  159.0966 C.ar    1  UNL1        0.1358
     17 N         140.6788  140.2136  159.3732 N.ar    1  UNL1       -0.2436
     18 O         143.3498  137.7181  157.6265 O.3     1  UNL1       -0.4611
     19 C         142.8724  136.7187  156.6149 C.3     1  UNL1        0.2681
     20 S         141.3889  136.8826  156.4657 S.3     1  UNL1       -0.0640
     21 C         139.2292  138.6697  165.5183 C.3     1  UNL1        0.0604
     22 O         138.0866  139.9782  170.3417 O.2     1  UNL1       -0.2670
     23 C         139.3289  140.6478  169.8335 C.ar    1  UNL1        0.2611
     24 C         140.0906  141.5877  170.7202 C.ar    1  UNL1        0.0623
     25 C         141.3330  142.2573  170.2121 C.ar    1  UNL1        0.0254
     26 C         141.8136  141.9870  168.8171 C.ar    1  UNL1        0.0972
     27 N         143.0045  142.5072  168.0545 N.ar    1  UNL1       -0.2400
     28 C         143.3616  142.1412  166.6444 C.ar    1  UNL1        0.1282
     29 C         142.5001  141.1823  165.8774 C.ar    1  UNL1        0.1588
     30 F         142.8571  140.8163  164.4672 F       1  UNL1       -0.2027
     31 C         141.2815  140.5894  166.5205 C.ar    1  UNL1        0.0500
     32 C         141.0519  141.0471  167.9304 C.ar    1  UNL1        0.0806
     33 N         139.8096  140.3775  168.4386 N.ar    1  UNL1       -0.2915
     34 C         139.2714  139.5061  167.3427 C.3     1  UNL1        0.1402
     35 C         140.1810  139.6370  166.1572 C.3     1  UNL1        0.1335
     36 O         140.8917  139.5658  164.8382 O.3     1  UNL1       -0.3806
     37 H         140.4159  138.9620  164.2467 H       1  UNL1        0.2108
@<TRIPOS>BOND
     1    22    23    2
     2    23    24   ar
     3    24    25   ar
     4    25    26   ar
     5    26    27   ar
     6    27    28   ar
     7    28    29   ar
     8    29    30    1
     9    29    31   ar
    10    31    32   ar
    11    32    33   ar
    12    33    34    1
    13    34    35    1
    14    35    36    1
    15    35    21    1
    16    21     1    1
    17     1     2    1
    18     2     3    1
    19     3     4    1
    20     4     9    1
    21     9    11    1
    22    11    12    1
    23    12    13   ar
    24    13    14   ar
    25    14    15   ar
    26    15    16   ar
    27    16    17   ar
    28    15    18    1
    29    18    19    1
    30    19    20    1
    31     4     5    1
    32     5     6    1
    33     4     7    1
    34     7     8    1
    35    33    23   ar
    36     6     1    1
    37    32    26   ar
    38     8     1    1
    39    35    31    1
    40    17    12   ar
    41    20    14    1
    42    36    37    1
    43     9    10    1
@<TRIPOS>MOLECULE
*****
 37 43 0 0 0
SMALL
GASTEIGER

@<TRIPOS>ATOM
      1 C         143.9163  140.0175  163.9326 C.3     1  UNL1        0.0955
      2 C         144.1080  141.5021  164.0313 C.3     1  UNL1        0.0287
      3 C         144.3870  142.3060  162.7960 C.3     1  UNL1        0.0193
      4 C         144.4743  141.6255  161.4621 C.3     1  UNL1        0.0700
      5 C         144.2827  140.1410  161.3635 C.3     1  UNL1        0.0193
      6 C         144.0036  139.3370  162.5987 C.3     1  UNL1        0.0287
      7 C         144.3194  141.1429  162.1111 C.3     1  UNL1        0.1562
      8 O         144.0671  140.4160  163.2280 O.3     1  UNL1       -0.3571
      9 N         144.7533  142.4294  160.2268 N.3     1  UNL1       -0.2926
     10 H         145.3394  141.8508  159.6251 H       1  UNL1        0.1236
     11 C         143.6173  142.9223  159.3804 C.3     1  UNL1        0.1152
     12 C         142.3253  143.3312  160.0235 C.ar    1  UNL1        0.0756
     13 C         141.2893  142.2967  160.3496 C.ar    1  UNL1        0.0254
     14 C         139.9973  142.7057  160.9926 C.ar    1  UNL1        0.0653
     15 C         139.7414  144.1493  161.3096 C.ar    1  UNL1        0.1646
     16 C         140.7774  145.1839  160.9835 C.ar    1  UNL1        0.1358
     17 N         142.0694  144.7748  160.3404 N.ar    1  UNL1       -0.2436
     18 O         138.3840  144.2519  161.9397 O.3     1  UNL1       -0.4611
     19 C         137.8011  142.8717  162.0121 C.3     1  UNL1        0.2681
     20 S         138.7982  141.9162  161.4268 S.3     1  UNL1       -0.0640
     21 C         143.6373  139.2136  165.1679 C.3     1  UNL1        0.0604
     22 O         143.2907  141.4544  169.7659 O.2     1  UNL1       -0.2670
     23 C         141.9773  140.9208  169.2756 C.ar    1  UNL1        0.2611
     24 C         140.7444  141.0751  170.1159 C.ar    1  UNL1        0.0623
     25 C         139.4310  140.5416  169.6257 C.ar    1  UNL1        0.0254
     26 C         139.3505  139.8537  168.2951 C.ar    1  UNL1        0.0972
     27 N         138.1898  139.2316  167.5630 N.ar    1  UNL1       -0.2400
     28 C         138.2634  138.5703  166.2186 C.ar    1  UNL1        0.1282
     29 C         139.5737  138.4906  165.4928 C.ar    1  UNL1        0.1588
     30 F         139.6474  137.8294  164.1484 F       1  UNL1       -0.2027
     31 C         140.8104  139.0721  166.1114 C.ar    1  UNL1        0.0500
     32 C         140.5834  139.6994  167.4549 C.ar    1  UNL1        0.0806
     33 N         141.8968  140.2330  167.9451 N.ar    1  UNL1       -0.2915
     34 C         142.9354  139.9354  166.9046 C.3     1  UNL1        0.1402
     35 C         142.2640  139.2179  165.7713 C.3     1  UNL1        0.1335
     36 O         141.8796  138.4996  164.5118 O.3     1  UNL1       -0.3806
     37 H         142.6633  138.3881  163.9512 H       1  UNL1        0.2108
@<TRIPOS>BOND
     1    22    23    2
     2    23    24   ar
     3    24    25   ar
     4    25    26   ar
     5    26    27   ar
     6    27    28   ar
     7    28    29   ar
     8    29    30    1
     9    29    31   ar
    10    31    32   ar
    11    32    33   ar
    12    33    34    1
    13    34    35    1
    14    35    36    1
    15    35    21    1
    16    21     1    1
    17     1     2    1
    18     2     3    1
    19     3     4    1
    20     4     9    1
    21     9    11    1
    22    11    12    1
    23    12    13   ar
    24    13    14   ar
    25    14    15   ar
    26    15    16   ar
    27    16    17   ar
    28    15    18    1
    29    18    19    1
    30    19    20    1
    31     4     5    1
    32     5     6    1
    33     4     7    1
    34     7     8    1
    35    33    23   ar
    36     6     1    1
    37    32    26   ar
    38     8     1    1
    39    35    31    1
    40    17    12   ar
    41    20    14    1
    42    36    37    1
    43     9    10    1
@<TRIPOS>MOLECULE
*****
 37 43 0 0 0
SMALL
GASTEIGER

@<TRIPOS>ATOM
      1 C         142.3205  138.4640  164.6641 C.3     1  UNL1        0.0955
      2 C         141.0675  137.6905  164.9506 C.3     1  UNL1        0.0287
      3 C         140.1035  137.3871  163.8421 C.3     1  UNL1        0.0193
      4 C         140.3924  137.8572  162.4473 C.3     1  UNL1        0.0700
      5 C         141.6453  138.6306  162.1609 C.3     1  UNL1        0.0193
      6 C         142.6094  138.9341  163.2693 C.3     1  UNL1        0.0287
      7 C         140.9506  138.0476  163.0220 C.3     1  UNL1        0.1562
      8 O         141.8222  138.3219  164.0242 O.3     1  UNL1       -0.3571
      9 N         139.4284  137.5538  161.3388 N.3     1  UNL1       -0.2926
     10 H         139.1789  136.5687  161.4269 H       1  UNL1        0.1236
     11 C         138.1423  138.3185  161.2332 C.3     1  UNL1        0.1152
     12 C         138.1460  139.8132  161.3593 C.ar    1  UNL1        0.0756
     13 C         137.8383  140.4553  162.6795 C.ar    1  UNL1        0.0254
     14 C         137.8419  141.9500  162.8054 C.ar    1  UNL1        0.0653
     15 C         138.1533  142.8026  161.6112 C.ar    1  UNL1        0.1646
     16 C         138.4610  142.1605  160.2910 C.ar    1  UNL1        0.1358
     17 N         138.4573  140.6658  160.1650 N.ar    1  UNL1       -0.2436
     18 O         138.0825  144.2393  162.0363 O.3     1  UNL1       -0.4611
     19 C         137.7275  144.2747  163.4932 C.3     1  UNL1        0.2681
     20 S         137.5788  142.8599  163.9686 S.3     1  UNL1       -0.0640
     21 C         143.2845  138.7674  165.7726 C.3     1  UNL1        0.0604
     22 O         140.7782  143.2214  165.3697 O.2     1  UNL1       -0.2670
     23 C         140.8706  142.7291  166.7835 C.ar    1  UNL1        0.2611
     24 C         140.2612  143.5279  167.8973 C.ar    1  UNL1        0.0623
     25 C         140.3537  143.0355  169.3111 C.ar    1  UNL1        0.0254
     26 C         141.0555  141.7443  169.6113 C.ar    1  UNL1        0.0972
     27 N         141.2973  141.0193  170.9099 N.ar    1  UNL1       -0.2400
     28 C         142.0265  139.7167  171.0558 C.ar    1  UNL1        0.1282
     29 C         142.5846  139.0298  169.8447 C.ar    1  UNL1        0.1588
     30 F         143.3138  137.7272  169.9907 F       1  UNL1       -0.2027
     31 C         142.4135  139.6457  168.4877 C.ar    1  UNL1        0.0500
     32 C         141.6649  140.9455  168.4976 C.ar    1  UNL1        0.0806
     33 N         141.5725  141.4379  167.0837 N.ar    1  UNL1       -0.2915
     34 C         142.2639  140.4423  166.2000 C.3     1  UNL1        0.1402
     35 C         142.7837  139.3347  167.0678 C.3     1  UNL1        0.1335
     36 O         143.4082  138.1085  167.6647 O.3     1  UNL1       -0.3806
     37 H         143.8098  137.5749  166.9612 H       1  UNL1        0.2108
@<TRIPOS>BOND
     1    22    23    2
     2    23    24   ar
     3    24    25   ar
     4    25    26   ar
     5    26    27   ar
     6    27    28   ar
     7    28    29   ar
     8    29    30    1
     9    29    31   ar
    10    31    32   ar
    11    32    33   ar
    12    33    34    1
    13    34    35    1
    14    35    36    1
    15    35    21    1
    16    21     1    1
    17     1     2    1
    18     2     3    1
    19     3     4    1
    20     4     9    1
    21     9    11    1
    22    11    12    1
    23    12    13   ar
    24    13    14   ar
    25    14    15   ar
    26    15    16   ar
    27    16    17   ar
    28    15    18    1
    29    18    19    1
    30    19    20    1
    31     4     5    1
    32     5     6    1
    33     4     7    1
    34     7     8    1
    35    33    23   ar
    36     6     1    1
    37    32    26   ar
    38     8     1    1
    39    35    31    1
    40    17    12   ar
    41    20    14    1
    42    36    37    1
    43     9    10    1
