@<TRIPOS>MOLECULE
*****
 33 37 0 0 0
SMALL
GASTEIGER

@<TRIPOS>ATOM
      1 C         139.8338  141.4090  163.9798 C.ar    1  UNL1        0.1830
      2 N         140.3895  141.6628  165.3498 N.ar    1  UNL1       -0.2078
      3 C         139.6820  140.7556  166.3124 C.ar    1  UNL1        0.1693
      4 N         138.6890  139.9412  165.5373 N.ar    1  UNL1       -0.2313
      5 N         138.7829  140.3451  164.0957 N.ar    1  UNL1       -0.1486
      6 C         137.8277  138.9372  166.2443 C.3     1  UNL1        0.1609
      7 C         137.9593  138.7475  167.7264 C.3     1  UNL1        0.1694
      8 O         138.9523  139.5619  168.5015 O.3     1  UNL1       -0.3421
      9 C         139.8136  140.5660  167.7944 C.3     1  UNL1        0.1950
     10 C         142.0120  143.4660  161.3771 C.ar    1  UNL1        0.1548
     11 C         141.5907  142.7768  162.6410 C.ar    1  UNL1        0.0415
     12 C         140.2551  142.0982  162.7159 C.ar    1  UNL1        0.0406
     13 C         139.3408  142.1088  161.5268 C.ar    1  UNL1        0.0048
     14 C         139.7621  142.7980  160.2629 C.ar    1  UNL1        0.0207
     15 C         141.0977  143.4767  160.1880 C.ar    1  UNL1        0.0994
     16 N         141.5190  144.1659  158.9241 N.ar    1  UNL1       -0.2839
     17 C         141.5449  145.6480  158.6945 C.ar    1  UNL1        0.1826
     18 N         142.0303  145.8921  157.2964 N.ar    1  UNL1       -0.2280
     19 C         142.3043  144.5608  156.6618 C.ar    1  UNL1        0.0786
     20 C         142.8063  144.3359  155.2663 C.3     1  UNL1        0.0538
     21 C         141.9883  143.4940  157.6678 C.ar    1  UNL1        0.0963
     22 C         144.2879  144.0805  162.4692 C.3     1  UNL1        0.2525
     23 O         143.3477  144.1447  161.3023 O.3     1  UNL1       -0.4700
     24 C         140.8066  141.3804  168.5695 C.ar    1  UNL1        0.0157
     25 C         140.3747  142.6515  169.2387 C.ar    1  UNL1       -0.0016
     26 C         141.3677  143.4659  170.0138 C.ar    1  UNL1       -0.0002
     27 C         142.7925  143.0092  170.1197 C.ar    1  UNL1       -0.0001
     28 C         143.2244  141.7382  169.4505 C.ar    1  UNL1        0.0036
     29 C         142.2314  140.9238  168.6754 C.ar    1  UNL1        0.0701
     30 C         142.6633  139.6526  168.0063 C.3     1  UNL1        0.4184
     31 F         143.0953  138.3816  167.3371 F       1  UNL1       -0.1659
     32 F         142.2851  138.8779  169.2337 F       1  UNL1       -0.1659
     33 F         143.0416  140.4274  166.7788 F       1  UNL1       -0.1659
@<TRIPOS>BOND
     1    22    23    1
     2    23    10    1
     3    10    11   ar
     4    11    12   ar
     5    12     1    1
     6     1     2   ar
     7     2     3   ar
     8     3     4   ar
     9     4     5   ar
    10     4     6    1
    11     6     7    1
    12     7     8    1
    13     8     9    1
    14     9    24    1
    15    24    25   ar
    16    25    26   ar
    17    26    27   ar
    18    27    28   ar
    19    28    29   ar
    20    29    30    1
    21    30    31    1
    22    30    32    1
    23    30    33    1
    24    12    13   ar
    25    13    14   ar
    26    14    15   ar
    27    15    16    1
    28    16    17   ar
    29    17    18   ar
    30    18    19   ar
    31    19    20    1
    32    19    21   ar
    33    15    10   ar
    34    21    16   ar
    35     5     1   ar
    36    29    24   ar
    37     9     3    1
@<TRIPOS>MOLECULE
*****
 33 37 0 0 0
SMALL
GASTEIGER

@<TRIPOS>ATOM
      1 C         139.8207  141.4241  163.9453 C.ar    1  UNL1        0.1830
      2 N         140.3721  141.6843  165.3158 N.ar    1  UNL1       -0.2078
      3 C         139.6755  140.7679  166.2775 C.ar    1  UNL1        0.1693
      4 N         138.6935  139.9413  165.5014 N.ar    1  UNL1       -0.2313
      5 N         138.7832  140.3469  164.0601 N.ar    1  UNL1       -0.1486
      6 C         137.8444  138.9261  166.2074 C.3     1  UNL1        0.1609
      7 C         137.9774  138.7375  167.6895 C.3     1  UNL1        0.1694
      8 O         138.9595  139.5641  168.4656 O.3     1  UNL1       -0.3421
      9 C         139.8085  140.5793  167.7596 C.3     1  UNL1        0.1950
     10 C         139.6500  143.0269  160.3188 C.ar    1  UNL1        0.1548
     11 C         139.2366  142.3319  161.5821 C.ar    1  UNL1        0.0415
     12 C         140.2341  142.1191  162.6820 C.ar    1  UNL1        0.0406
     13 C         141.6450  142.6014  162.5185 C.ar    1  UNL1        0.0048
     14 C         142.0584  143.2964  161.2551 C.ar    1  UNL1        0.0207
     15 C         141.0609  143.5092  160.1553 C.ar    1  UNL1        0.0994
     16 N         141.4743  144.2042  158.8919 N.ar    1  UNL1       -0.2839
     17 C         141.4656  145.6857  158.6572 C.ar    1  UNL1        0.1826
     18 N         141.9549  145.9368  157.2617 N.ar    1  UNL1       -0.2280
     19 C         142.2661  144.6106  156.6339 C.ar    1  UNL1        0.0786
     20 C         142.7835  144.3932  155.2428 C.3     1  UNL1        0.0538
     21 C         141.9691  143.5397  157.6414 C.ar    1  UNL1        0.0963
     22 C         138.3467  142.1288  158.2585 C.3     1  UNL1        0.2525
     23 O         138.6525  143.2397  159.2189 O.3     1  UNL1       -0.4700
     24 C         140.7905  141.4059  168.5357 C.ar    1  UNL1        0.0157
     25 C         140.3434  142.6742  169.2002 C.ar    1  UNL1       -0.0016
     26 C         141.3255  143.5008  169.9763 C.ar    1  UNL1       -0.0002
     27 C         142.7546  143.0591  170.0879 C.ar    1  UNL1       -0.0001
     28 C         143.2017  141.7909  169.4234 C.ar    1  UNL1        0.0036
     29 C         142.2197  140.9643  168.6473 C.ar    1  UNL1        0.0701
     30 C         142.6669  139.6960  167.9827 C.3     1  UNL1        0.4184
     31 F         143.1140  138.4278  167.3181 F       1  UNL1       -0.1659
     32 F         142.3190  138.9244  169.2211 F       1  UNL1       -0.1659
     33 F         143.0147  140.4676  166.7443 F       1  UNL1       -0.1659
@<TRIPOS>BOND
     1    22    23    1
     2    23    10    1
     3    10    11   ar
     4    11    12   ar
     5    12     1    1
     6     1     2   ar
     7     2     3   ar
     8     3     4   ar
     9     4     5   ar
    10     4     6    1
    11     6     7    1
    12     7     8    1
    13     8     9    1
    14     9    24    1
    15    24    25   ar
    16    25    26   ar
    17    26    27   ar
    18    27    28   ar
    19    28    29   ar
    20    29    30    1
    21    30    31    1
    22    30    32    1
    23    30    33    1
    24    12    13   ar
    25    13    14   ar
    26    14    15   ar
    27    15    16    1
    28    16    17   ar
    29    17    18   ar
    30    18    19   ar
    31    19    20    1
    32    19    21   ar
    33    15    10   ar
    34    21    16   ar
    35     5     1   ar
    36    29    24   ar
    37     9     3    1
@<TRIPOS>MOLECULE
*****
 33 37 0 0 0
SMALL
GASTEIGER

@<TRIPOS>ATOM
      1 C         142.2194  141.6009  161.8679 C.ar    1  UNL1        0.1830
      2 N         141.4531  140.9523  162.9824 N.ar    1  UNL1       -0.2078
      3 C         142.4355  140.2551  163.8761 C.ar    1  UNL1        0.1693
      4 N         143.8091  140.4728  163.3140 N.ar    1  UNL1       -0.2313
      5 N         143.6755  141.3046  162.0729 N.ar    1  UNL1       -0.1486
      6 C         145.0039  139.8855  164.0049 C.3     1  UNL1        0.1609
      7 C         144.8252  139.0806  165.2579 C.3     1  UNL1        0.1694
      8 O         143.4517  138.8628  165.8200 O.3     1  UNL1       -0.3421
      9 C         142.2568  139.4501  165.1291 C.3     1  UNL1        0.1950
     10 C         140.3339  144.4960  159.9152 C.ar    1  UNL1        0.1548
     11 C         140.9206  143.6922  161.0376 C.ar    1  UNL1        0.0415
     12 C         141.6327  142.4047  160.7456 C.ar    1  UNL1        0.0406
     13 C         141.7582  141.9211  159.3313 C.ar    1  UNL1        0.0048
     14 C         141.1715  142.7249  158.2089 C.ar    1  UNL1        0.0207
     15 C         140.4593  144.0124  158.5009 C.ar    1  UNL1        0.0994
     16 N         139.8726  144.8162  157.3786 N.ar    1  UNL1       -0.2839
     17 C         138.8499  144.3369  156.3915 C.ar    1  UNL1        0.1826
     18 N         138.5509  145.4649  155.4491 N.ar    1  UNL1       -0.2280
     19 C         139.3887  146.6415  155.8538 C.ar    1  UNL1        0.0786
     20 C         139.4066  147.9833  155.1836 C.3     1  UNL1        0.0538
     21 C         140.2056  146.2405  157.0462 C.ar    1  UNL1        0.0963
     22 C         139.6359  146.3502  161.5960 C.3     1  UNL1        0.2525
     23 O         139.6217  145.7835  160.2073 O.3     1  UNL1       -0.4700
     24 C         140.8832  139.2324  165.6912 C.ar    1  UNL1        0.0157
     25 C         140.4399  139.9947  166.9045 C.ar    1  UNL1       -0.0016
     26 C         139.0663  139.7770  167.4666 C.ar    1  UNL1       -0.0002
     27 C         138.1361  138.7969  166.8153 C.ar    1  UNL1       -0.0001
     28 C         138.5795  138.0345  165.6020 C.ar    1  UNL1        0.0036
     29 C         139.9531  138.2523  165.0399 C.ar    1  UNL1        0.0701
     30 C         140.3964  137.4899  163.8265 C.3     1  UNL1        0.4184
     31 F         140.8397  136.7275  162.6132 F       1  UNL1       -0.1659
     32 F         141.2025  136.5725  164.6975 F       1  UNL1       -0.1659
     33 F         139.5903  138.4072  162.9556 F       1  UNL1       -0.1659
@<TRIPOS>BOND
     1    22    23    1
     2    23    10    1
     3    10    11   ar
     4    11    12   ar
     5    12     1    1
     6     1     2   ar
     7     2     3   ar
     8     3     4   ar
     9     4     5   ar
    10     4     6    1
    11     6     7    1
    12     7     8    1
    13     8     9    1
    14     9    24    1
    15    24    25   ar
    16    25    26   ar
    17    26    27   ar
    18    27    28   ar
    19    28    29   ar
    20    29    30    1
    21    30    31    1
    22    30    32    1
    23    30    33    1
    24    12    13   ar
    25    13    14   ar
    26    14    15   ar
    27    15    16    1
    28    16    17   ar
    29    17    18   ar
    30    18    19   ar
    31    19    20    1
    32    19    21   ar
    33    15    10   ar
    34    21    16   ar
    35     5     1   ar
    36    29    24   ar
    37     9     3    1
@<TRIPOS>MOLECULE
*****
 33 37 0 0 0
SMALL
GASTEIGER

@<TRIPOS>ATOM
      1 C         142.1377  141.4904  161.7978 C.ar    1  UNL1        0.1830
      2 N         141.3602  140.7733  162.8614 N.ar    1  UNL1       -0.2078
      3 C         142.3383  140.0786  163.7618 C.ar    1  UNL1        0.1693
      4 N         143.7203  140.3664  163.2546 N.ar    1  UNL1       -0.2313
      5 N         143.5963  141.2389  162.0408 N.ar    1  UNL1       -0.1486
      6 C         144.9132  139.7968  163.9636 C.3     1  UNL1        0.1609
      7 C         144.7239  138.9394  165.1798 C.3     1  UNL1        0.1694
      8 O         143.3419  138.6516  165.6869 O.3     1  UNL1       -0.3421
      9 C         142.1491  139.2212  164.9779 C.3     1  UNL1        0.1950
     10 C         140.3200  144.4509  159.8791 C.ar    1  UNL1        0.1548
     11 C         140.8994  143.6270  160.9906 C.ar    1  UNL1        0.0415
     12 C         141.5582  142.3143  160.6863 C.ar    1  UNL1        0.0406
     13 C         141.6376  141.8255  159.2704 C.ar    1  UNL1        0.0048
     14 C         141.0582  142.6494  158.1589 C.ar    1  UNL1        0.0207
     15 C         140.3994  143.9621  158.4632 C.ar    1  UNL1        0.0994
     16 N         139.8199  144.7860  157.3517 N.ar    1  UNL1       -0.2839
     17 C         138.8546  144.3056  156.3090 C.ar    1  UNL1        0.1826
     18 N         138.5422  145.4577  155.4006 N.ar    1  UNL1       -0.2280
     19 C         139.3144  146.6501  155.8820 C.ar    1  UNL1        0.0786
     20 C         139.2995  148.0176  155.2657 C.3     1  UNL1        0.0538
     21 C         140.1040  146.2350  157.0878 C.ar    1  UNL1        0.0963
     22 C         139.6777  146.3046  161.5825 C.3     1  UNL1        0.2525
     23 O         139.6612  145.7637  160.1835 O.3     1  UNL1       -0.4700
     24 C         140.7671  138.9335  165.4850 C.ar    1  UNL1        0.0157
     25 C         139.9709  137.8076  164.8948 C.ar    1  UNL1       -0.0016
     26 C         138.5889  137.5198  165.4019 C.ar    1  UNL1       -0.0002
     27 C         138.0030  138.3579  166.4993 C.ar    1  UNL1       -0.0001
     28 C         138.7992  139.4837  167.0896 C.ar    1  UNL1        0.0036
     29 C         140.1812  139.7715  166.5825 C.ar    1  UNL1        0.0701
     30 C         140.9774  140.8974  167.1728 C.3     1  UNL1        0.4184
     31 F         141.7736  142.0233  167.7632 F       1  UNL1       -0.1659
     32 F         140.3865  141.8420  166.1686 F       1  UNL1       -0.1659
     33 F         141.5684  139.9529  168.1771 F       1  UNL1       -0.1659
@<TRIPOS>BOND
     1    22    23    1
     2    23    10    1
     3    10    11   ar
     4    11    12   ar
     5    12     1    1
     6     1     2   ar
     7     2     3   ar
     8     3     4   ar
     9     4     5   ar
    10     4     6    1
    11     6     7    1
    12     7     8    1
    13     8     9    1
    14     9    24    1
    15    24    25   ar
    16    25    26   ar
    17    26    27   ar
    18    27    28   ar
    19    28    29   ar
    20    29    30    1
    21    30    31    1
    22    30    32    1
    23    30    33    1
    24    12    13   ar
    25    13    14   ar
    26    14    15   ar
    27    15    16    1
    28    16    17   ar
    29    17    18   ar
    30    18    19   ar
    31    19    20    1
    32    19    21   ar
    33    15    10   ar
    34    21    16   ar
    35     5     1   ar
    36    29    24   ar
    37     9     3    1
@<TRIPOS>MOLECULE
*****
 33 37 0 0 0
SMALL
GASTEIGER

@<TRIPOS>ATOM
      1 C         143.3094  140.7866  162.0500 C.ar    1  UNL1        0.1830
      2 N         142.1434  141.4345  162.7360 N.ar    1  UNL1       -0.2078
      3 C         142.0099  140.8238  164.0996 C.ar    1  UNL1        0.1693
      4 N         143.0935  139.7985  164.2563 N.ar    1  UNL1       -0.2313
      5 N         143.8966  139.7755  162.9896 N.ar    1  UNL1       -0.1486
      6 C         143.2089  139.0182  165.5322 C.3     1  UNL1        0.1609
      7 C         142.2407  139.2633  166.6513 C.3     1  UNL1        0.1694
      8 O         141.1571  140.2886  166.4946 O.3     1  UNL1       -0.3421
      9 C         141.0417  141.0689  165.2187 C.3     1  UNL1        0.1950
     10 C         144.1508  140.3865  158.1923 C.ar    1  UNL1        0.1548
     11 C         143.6584  140.0775  159.5751 C.ar    1  UNL1        0.0415
     12 C         143.8018  141.0956  160.6673 C.ar    1  UNL1        0.0406
     13 C         144.4377  142.4227  160.3766 C.ar    1  UNL1        0.0048
     14 C         144.9300  142.7317  158.9938 C.ar    1  UNL1        0.0207
     15 C         144.7866  141.7136  157.9017 C.ar    1  UNL1        0.0994
     16 N         145.2790  142.0225  156.5189 N.ar    1  UNL1       -0.2839
     17 C         144.4268  142.3970  155.3427 C.ar    1  UNL1        0.1826
     18 N         145.3311  142.6172  154.1664 N.ar    1  UNL1       -0.2280
     19 C         146.7423  142.3789  154.6156 C.ar    1  UNL1        0.0786
     20 C         147.9701  142.4887  153.7610 C.3     1  UNL1        0.0538
     21 C         146.7100  142.0113  156.0695 C.ar    1  UNL1        0.0963
     22 C         142.8698  138.3910  157.1306 C.3     1  UNL1        0.2525
     23 O         144.0073  139.3683  157.1001 O.3     1  UNL1       -0.4700
     24 C         139.9582  142.0942  165.0620 C.ar    1  UNL1        0.0157
     25 C         140.2083  143.5173  165.4645 C.ar    1  UNL1       -0.0016
     26 C         139.1248  144.5427  165.3077 C.ar    1  UNL1       -0.0002
     27 C         137.7910  144.1449  164.7485 C.ar    1  UNL1       -0.0001
     28 C         137.5408  142.7217  164.3460 C.ar    1  UNL1        0.0036
     29 C         138.6244  141.6964  164.5027 C.ar    1  UNL1        0.0701
     30 C         138.3742  140.2732  164.1002 C.3     1  UNL1        0.4184
     31 F         138.1240  138.8501  163.6976 F       1  UNL1       -0.1659
     32 F         137.8781  139.9693  165.4828 F       1  UNL1       -0.1659
     33 F         138.8702  140.5771  162.7176 F       1  UNL1       -0.1659
@<TRIPOS>BOND
     1    22    23    1
     2    23    10    1
     3    10    11   ar
     4    11    12   ar
     5    12     1    1
     6     1     2   ar
     7     2     3   ar
     8     3     4   ar
     9     4     5   ar
    10     4     6    1
    11     6     7    1
    12     7     8    1
    13     8     9    1
    14     9    24    1
    15    24    25   ar
    16    25    26   ar
    17    26    27   ar
    18    27    28   ar
    19    28    29   ar
    20    29    30    1
    21    30    31    1
    22    30    32    1
    23    30    33    1
    24    12    13   ar
    25    13    14   ar
    26    14    15   ar
    27    15    16    1
    28    16    17   ar
    29    17    18   ar
    30    18    19   ar
    31    19    20    1
    32    19    21   ar
    33    15    10   ar
    34    21    16   ar
    35     5     1   ar
    36    29    24   ar
    37     9     3    1
@<TRIPOS>MOLECULE
*****
 33 37 0 0 0
SMALL
GASTEIGER

@<TRIPOS>ATOM
      1 C         140.6342  139.2898  161.6717 C.ar    1  UNL1        0.1830
      2 N         141.1963  140.5355  162.2899 N.ar    1  UNL1       -0.2078
      3 C         140.6367  140.6582  163.6762 C.ar    1  UNL1        0.1693
      4 N         139.7288  139.4883  163.9148 N.ar    1  UNL1       -0.2313
      5 N         139.7272  138.6426  162.6759 N.ar    1  UNL1       -0.1486
      6 C         139.0207  139.3443  165.2292 C.3     1  UNL1        0.1609
      7 C         139.2206  140.3701  166.3051 C.3     1  UNL1        0.1694
      8 O         140.1286  141.5400  166.0666 O.3     1  UNL1       -0.3421
      9 C         140.8366  141.6841  164.7521 C.3     1  UNL1        0.1950
     10 C         140.1421  138.2647  157.8695 C.ar    1  UNL1        0.1548
     11 C         139.8487  138.7738  159.2496 C.ar    1  UNL1        0.0415
     12 C         140.9276  138.7806  160.2916 C.ar    1  UNL1        0.0406
     13 C         142.3000  138.2783  159.9535 C.ar    1  UNL1        0.0048
     14 C         142.5933  137.7692  158.5734 C.ar    1  UNL1        0.0207
     15 C         141.5144  137.7624  157.5314 C.ar    1  UNL1        0.0994
     16 N         141.8078  137.2532  156.1512 N.ar    1  UNL1       -0.2839
     17 C         142.3119  138.0703  154.9987 C.ar    1  UNL1        0.1826
     18 N         142.4643  137.1597  153.8165 N.ar    1  UNL1       -0.2280
     19 C         142.0543  135.7798  154.2384 C.ar    1  UNL1        0.0786
     20 C         142.0507  134.5569  153.3699 C.3     1  UNL1        0.0538
     21 C         141.6486  135.8377  155.6813 C.ar    1  UNL1        0.0963
     22 C         138.8607  139.4571  155.9495 C.3     1  UNL1        0.2525
     23 O         139.0631  138.2579  156.8274 O.3     1  UNL1       -0.4700
     24 C         141.7446  142.8540  164.5135 C.ar    1  UNL1        0.0157
     25 C         143.2183  142.7220  164.7596 C.ar    1  UNL1       -0.0016
     26 C         144.1263  143.8919  164.5210 C.ar    1  UNL1       -0.0002
     27 C         143.5605  145.1938  164.0364 C.ar    1  UNL1       -0.0001
     28 C         142.0868  145.3258  163.7903 C.ar    1  UNL1        0.0036
     29 C         141.1788  144.1559  164.0289 C.ar    1  UNL1        0.0701
     30 C         139.7050  144.2879  163.7828 C.3     1  UNL1        0.4184
     31 F         138.2312  144.4199  163.5366 F       1  UNL1       -0.1659
     32 F         139.5142  144.7775  165.1877 F       1  UNL1       -0.1659
     33 F         139.8958  143.7984  162.3778 F       1  UNL1       -0.1659
@<TRIPOS>BOND
     1    22    23    1
     2    23    10    1
     3    10    11   ar
     4    11    12   ar
     5    12     1    1
     6     1     2   ar
     7     2     3   ar
     8     3     4   ar
     9     4     5   ar
    10     4     6    1
    11     6     7    1
    12     7     8    1
    13     8     9    1
    14     9    24    1
    15    24    25   ar
    16    25    26   ar
    17    26    27   ar
    18    27    28   ar
    19    28    29   ar
    20    29    30    1
    21    30    31    1
    22    30    32    1
    23    30    33    1
    24    12    13   ar
    25    13    14   ar
    26    14    15   ar
    27    15    16    1
    28    16    17   ar
    29    17    18   ar
    30    18    19   ar
    31    19    20    1
    32    19    21   ar
    33    15    10   ar
    34    21    16   ar
    35     5     1   ar
    36    29    24   ar
    37     9     3    1
@<TRIPOS>MOLECULE
*****
 33 37 0 0 0
SMALL
GASTEIGER

@<TRIPOS>ATOM
      1 C         143.1287  138.6283  159.4237 C.ar    1  UNL1        0.1830
      2 N         142.9589  137.3904  158.5938 N.ar    1  UNL1       -0.2078
      3 C         143.0720  137.7810  157.1500 C.ar    1  UNL1        0.1693
      4 N         143.3117  139.2605  157.0875 N.ar    1  UNL1       -0.2313
      5 N         143.3467  139.7841  158.4927 N.ar    1  UNL1       -0.1486
      6 C         143.4671  139.9396  155.7592 C.3     1  UNL1        0.1609
      7 C         143.3829  139.1394  154.4933 C.3     1  UNL1        0.1694
      8 O         143.1432  137.6599  154.5558 O.3     1  UNL1       -0.3421
      9 C         142.9878  136.9808  155.8841 C.3     1  UNL1        0.1950
     10 C         144.1324  139.4838  163.1667 C.ar    1  UNL1        0.1548
     11 C         144.1734  139.4139  161.6689 C.ar    1  UNL1        0.0415
     12 C         143.0876  138.6983  160.9215 C.ar    1  UNL1        0.0406
     13 C         141.9607  138.0525  161.6718 C.ar    1  UNL1        0.0048
     14 C         141.9196  138.1224  163.1696 C.ar    1  UNL1        0.0207
     15 C         143.0055  138.8381  163.9171 C.ar    1  UNL1        0.0994
     16 N         142.9644  138.9080  165.4149 N.ar    1  UNL1       -0.2839
     17 C         143.8003  138.0954  166.3587 C.ar    1  UNL1        0.1826
     18 N         143.4328  138.4880  167.7590 N.ar    1  UNL1       -0.2280
     19 C         142.3696  139.5432  167.6806 C.ar    1  UNL1        0.0786
     20 C         141.7115  140.2201  168.8462 C.3     1  UNL1        0.0538
     21 C         142.0802  139.8028  166.2319 C.ar    1  UNL1        0.0963
     22 C         145.6118  141.5909  163.5154 C.3     1  UNL1        0.2525
     23 O         145.2183  140.1995  163.9142 O.3     1  UNL1       -0.4700
     24 C         142.7481  135.5014  155.9466 C.ar    1  UNL1        0.0157
     25 C         143.6776  134.6235  156.7309 C.ar    1  UNL1       -0.0016
     26 C         143.4380  133.1441  156.7933 C.ar    1  UNL1       -0.0002
     27 C         142.2687  132.5426  156.0716 C.ar    1  UNL1       -0.0001
     28 C         141.3391  133.4205  155.2873 C.ar    1  UNL1        0.0036
     29 C         141.5788  134.8999  155.2248 C.ar    1  UNL1        0.0701
     30 C         140.6492  135.7778  154.4405 C.3     1  UNL1        0.4184
     31 F         139.7195  136.6557  153.6563 F       1  UNL1       -0.1659
     32 F         141.3627  135.4033  153.1754 F       1  UNL1       -0.1659
     33 F         139.9356  136.1523  155.7056 F       1  UNL1       -0.1659
@<TRIPOS>BOND
     1    22    23    1
     2    23    10    1
     3    10    11   ar
     4    11    12   ar
     5    12     1    1
     6     1     2   ar
     7     2     3   ar
     8     3     4   ar
     9     4     5   ar
    10     4     6    1
    11     6     7    1
    12     7     8    1
    13     8     9    1
    14     9    24    1
    15    24    25   ar
    16    25    26   ar
    17    26    27   ar
    18    27    28   ar
    19    28    29   ar
    20    29    30    1
    21    30    31    1
    22    30    32    1
    23    30    33    1
    24    12    13   ar
    25    13    14   ar
    26    14    15   ar
    27    15    16    1
    28    16    17   ar
    29    17    18   ar
    30    18    19   ar
    31    19    20    1
    32    19    21   ar
    33    15    10   ar
    34    21    16   ar
    35     5     1   ar
    36    29    24   ar
    37     9     3    1
@<TRIPOS>MOLECULE
*****
 33 37 0 0 0
SMALL
GASTEIGER

@<TRIPOS>ATOM
      1 C         141.8450  138.8412  161.5060 C.ar    1  UNL1        0.1830
      2 N         141.9419  140.2170  162.0957 N.ar    1  UNL1       -0.2078
      3 C         142.2423  140.0744  163.5584 C.ar    1  UNL1        0.1693
      4 N         142.3310  138.6103  163.8727 N.ar    1  UNL1       -0.2313
      5 N         142.0855  137.8482  162.6042 N.ar    1  UNL1       -0.1486
      6 C         142.6239  138.1603  165.2733 C.3     1  UNL1        0.1609
      7 C         142.8281  139.1743  166.3595 C.3     1  UNL1        0.1694
      8 O         142.7393  140.6384  166.0452 O.3     1  UNL1       -0.3421
      9 C         142.4465  141.0884  164.6447 C.3     1  UNL1        0.1950
     10 C         142.3270  137.5459  157.7858 C.ar    1  UNL1        0.1548
     11 C         142.6140  137.8715  159.2216 C.ar    1  UNL1        0.0415
     12 C         141.5580  138.5156  160.0702 C.ar    1  UNL1        0.0406
     13 C         140.2151  138.8340  159.4829 C.ar    1  UNL1        0.0048
     14 C         139.9281  138.5084  158.0470 C.ar    1  UNL1        0.0207
     15 C         140.9841  137.8643  157.1985 C.ar    1  UNL1        0.0994
     16 N         140.6971  137.5387  155.7627 N.ar    1  UNL1       -0.2839
     17 C         140.2544  136.2074  155.2320 C.ar    1  UNL1        0.1826
     18 N         140.0861  136.3330  153.7468 N.ar    1  UNL1       -0.2280
     19 C         140.4248  137.7420  153.3595 C.ar    1  UNL1        0.0786
     20 C         140.3917  138.3068  151.9703 C.3     1  UNL1        0.0538
     21 C         140.8024  138.4871  154.6054 C.ar    1  UNL1        0.0963
     22 C         143.4237  135.4091  156.7949 C.3     1  UNL1        0.2525
     23 O         143.3831  136.9018  156.9373 O.3     1  UNL1       -0.4700
     24 C         142.3577  142.5524  164.3304 C.ar    1  UNL1        0.0157
     25 C         141.0511  143.2737  164.4797 C.ar    1  UNL1       -0.0016
     26 C         140.9623  144.7377  164.1654 C.ar    1  UNL1       -0.0002
     27 C         142.1803  145.4804  163.7018 C.ar    1  UNL1       -0.0001
     28 C         143.4869  144.7591  163.5524 C.ar    1  UNL1        0.0036
     29 C         143.5756  143.2951  163.8667 C.ar    1  UNL1        0.0701
     30 C         144.8824  142.5738  163.7174 C.3     1  UNL1        0.4184
     31 F         146.1891  141.8526  163.5681 F       1  UNL1       -0.1659
     32 F         144.5554  142.2781  162.2837 F       1  UNL1       -0.1659
     33 F         145.2094  142.8695  165.1511 F       1  UNL1       -0.1659
@<TRIPOS>BOND
     1    22    23    1
     2    23    10    1
     3    10    11   ar
     4    11    12   ar
     5    12     1    1
     6     1     2   ar
     7     2     3   ar
     8     3     4   ar
     9     4     5   ar
    10     4     6    1
    11     6     7    1
    12     7     8    1
    13     8     9    1
    14     9    24    1
    15    24    25   ar
    16    25    26   ar
    17    26    27   ar
    18    27    28   ar
    19    28    29   ar
    20    29    30    1
    21    30    31    1
    22    30    32    1
    23    30    33    1
    24    12    13   ar
    25    13    14   ar
    26    14    15   ar
    27    15    16    1
    28    16    17   ar
    29    17    18   ar
    30    18    19   ar
    31    19    20    1
    32    19    21   ar
    33    15    10   ar
    34    21    16   ar
    35     5     1   ar
    36    29    24   ar
    37     9     3    1
@<TRIPOS>MOLECULE
*****
 33 37 0 0 0
SMALL
GASTEIGER

@<TRIPOS>ATOM
      1 C         142.4826  141.2923  163.5236 C.ar    1  UNL1        0.1830
      2 N         142.2050  141.6418  164.9557 N.ar    1  UNL1       -0.2078
      3 C         142.6537  140.4925  165.8087 C.ar    1  UNL1        0.1693
      4 N         143.2086  139.4326  164.9039 N.ar    1  UNL1       -0.2313
      5 N         143.1029  139.9269  163.4916 N.ar    1  UNL1       -0.1486
      6 C         143.7385  138.1543  165.4828 C.3     1  UNL1        0.1609
      7 C         143.7135  137.9359  166.9666 C.3     1  UNL1        0.1694
      8 O         143.1586  138.9958  167.8714 O.3     1  UNL1       -0.3421
      9 C         142.6287  140.2741  167.2925 C.3     1  UNL1        0.1950
     10 C         140.7266  143.9552  161.1624 C.ar    1  UNL1        0.1548
     11 C         141.0181  143.0911  162.3533 C.ar    1  UNL1        0.0415
     12 C         142.1911  142.1564  162.3327 C.ar    1  UNL1        0.0406
     13 C         143.0726  142.0859  161.1211 C.ar    1  UNL1        0.0048
     14 C         142.7811  142.9500  159.9302 C.ar    1  UNL1        0.0207
     15 C         141.6081  143.8847  159.9508 C.ar    1  UNL1        0.0994
     16 N         141.3166  144.7488  158.7599 N.ar    1  UNL1       -0.2839
     17 C         142.3165  145.5682  157.9991 C.ar    1  UNL1        0.1826
     18 N         141.5919  146.2711  156.8897 N.ar    1  UNL1       -0.2280
     19 C         140.1441  145.8861  156.9647 C.ar    1  UNL1        0.0786
     20 C         139.0573  146.3589  156.0454 C.3     1  UNL1        0.0538
     21 C         139.9740  144.9453  158.1206 C.ar    1  UNL1        0.0963
     22 C         139.7125  146.2811  161.7208 C.3     1  UNL1        0.2525
     23 O         139.5535  144.8899  161.1831 O.3     1  UNL1       -0.4700
     24 C         142.0737  141.3339  168.1973 C.ar    1  UNL1        0.0157
     25 C         143.0031  142.2297  168.9613 C.ar    1  UNL1       -0.0016
     26 C         142.4482  143.2896  169.8662 C.ar    1  UNL1       -0.0002
     27 C         140.9639  143.4537  170.0070 C.ar    1  UNL1       -0.0001
     28 C         140.0345  142.5578  169.2430 C.ar    1  UNL1        0.0036
     29 C         140.5894  141.4980  168.3382 C.ar    1  UNL1        0.0701
     30 C         139.6600  140.6021  167.5742 C.3     1  UNL1        0.4184
     31 F         138.7306  139.7063  166.8102 F       1  UNL1       -0.1659
     32 F         139.5493  141.6376  166.4946 F       1  UNL1       -0.1659
     33 F         139.7707  139.5667  168.6537 F       1  UNL1       -0.1659
@<TRIPOS>BOND
     1    22    23    1
     2    23    10    1
     3    10    11   ar
     4    11    12   ar
     5    12     1    1
     6     1     2   ar
     7     2     3   ar
     8     3     4   ar
     9     4     5   ar
    10     4     6    1
    11     6     7    1
    12     7     8    1
    13     8     9    1
    14     9    24    1
    15    24    25   ar
    16    25    26   ar
    17    26    27   ar
    18    27    28   ar
    19    28    29   ar
    20    29    30    1
    21    30    31    1
    22    30    32    1
    23    30    33    1
    24    12    13   ar
    25    13    14   ar
    26    14    15   ar
    27    15    16    1
    28    16    17   ar
    29    17    18   ar
    30    18    19   ar
    31    19    20    1
    32    19    21   ar
    33    15    10   ar
    34    21    16   ar
    35     5     1   ar
    36    29    24   ar
    37     9     3    1
