@<TRIPOS>MOLECULE
*****
 36 40 0 0 0
SMALL
GASTEIGER

@<TRIPOS>ATOM
      1 C         140.5385  138.6140  159.8413 C.3     1  UNL1        0.1700
      2 O         140.4986  138.8267  158.3570 O.3     1  UNL1       -0.3793
      3 H         139.5770  138.9161  158.0679 H       1  UNL1        0.2106
      4 C         139.2616  138.5695  160.6272 C.3     1  UNL1        0.2358
      5 O         138.7389  139.8147  161.2801 O.3     1  UNL1       -0.4725
      6 C         138.6804  141.2468  163.4471 C.ar    1  UNL1        0.0874
      7 C         138.6125  141.3375  164.9427 C.ar    1  UNL1        0.0107
      8 C         138.5352  140.0868  165.7672 C.ar    1  UNL1        0.0370
      9 C         138.5259  138.7454  165.0960 C.ar    1  UNL1        0.1367
     10 O         138.4486  137.4947  165.9205 O.3     1  UNL1       -0.5054
     11 C         138.5938  138.6547  163.6003 C.ar    1  UNL1        0.0736
     12 C         138.6710  139.9054  162.7758 C.ar    1  UNL1        0.1460
     13 H         138.4062  137.5514  166.8549 H       1  UNL1        0.2922
     14 O         137.6707  142.8158  161.6390 O.2     1  UNL1       -0.2700
     15 C         138.7576  142.4975  162.6226 C.2     1  UNL1        0.2488
     16 N         139.9218  143.4299  162.7816 N.am    1  UNL1       -0.3024
     17 H         140.6351  143.2211  163.4271 H       1  UNL1        0.1497
     18 C         139.9990  144.6806  161.9571 C.3     1  UNL1        0.0720
     19 C         140.2919  145.3604  160.6525 C.3     1  UNL1        0.0213
     20 C         139.8400  146.1670  161.8337 C.3     1  UNL1        0.0213
     21 C         141.8553  138.4459  160.5398 C.3     1  UNL1        0.1056
     22 N         142.0073  138.8781  161.9681 N.3     1  UNL1       -0.2703
     23 C         141.9891  137.8570  163.0667 C.3     1  UNL1        0.0758
     24 C         142.1411  138.2892  164.4950 C.3     1  UNL1        0.0577
     25 C         142.3112  139.7426  164.8247 C.3     1  UNL1        0.1399
     26 C         142.3294  140.7638  163.7261 C.3     1  UNL1        0.0577
     27 C         142.1774  140.3315  162.2978 C.3     1  UNL1        0.0758
     28 C         142.4885  141.1525  165.3051 C.3     1  UNL1        0.0695
     29 C         142.5995  141.1222  166.8007 C.ar    1  UNL1        0.0161
     30 C         142.7855  142.2108  167.8157 C.ar    1  UNL1        0.0102
     31 C         142.8627  141.8708  169.2746 C.ar    1  UNL1        0.0576
     32 CL        143.0487  142.9595  170.2896 Cl      1  UNL1       -0.0823
     33 C         142.7540  140.4422  169.7186 C.ar    1  UNL1        0.0145
     34 C         142.5680  139.3535  168.7036 C.ar    1  UNL1        0.0374
     35 C         142.4907  139.6934  167.2446 C.ar    1  UNL1        0.1343
     36 O         142.3126  138.8409  166.0234 O.3     1  UNL1       -0.4825
@<TRIPOS>BOND
     1    14    15    2
     2    15    16   am
     3    16    18    1
     4    18    19    1
     5    19    20    1
     6    15     6    1
     7     6     7   ar
     8     7     8   ar
     9     8     9   ar
    10     9    10    1
    11     9    11   ar
    12    11    12   ar
    13    12     5    1
    14     5     4    1
    15     4     1    1
    16     1     2    1
    17     1    21    1
    18    21    22    1
    19    22    23    1
    20    23    24    1
    21    24    25    1
    22    25    26    1
    23    26    27    1
    24    25    28    1
    25    28    29    1
    26    29    30   ar
    27    30    31   ar
    28    31    32    1
    29    31    33   ar
    30    33    34   ar
    31    34    35   ar
    32    35    36    1
    33    20    18    1
    34    12     6   ar
    35    27    22    1
    36    35    29   ar
    37    36    25    1
    38    16    17    1
    39    10    13    1
    40     2     3    1
@<TRIPOS>MOLECULE
*****
 36 40 0 0 0
SMALL
GASTEIGER

@<TRIPOS>ATOM
      1 C         138.0738  140.2520  160.6938 C.3     1  UNL1        0.1700
      2 O         136.6039  140.1691  160.9811 O.3     1  UNL1       -0.3793
      3 H         136.2696  139.3005  160.7081 H       1  UNL1        0.2106
      4 C         138.7839  139.0850  160.0743 C.3     1  UNL1        0.2358
      5 O         139.6398  138.1916  160.9224 O.3     1  UNL1       -0.4725
      6 C         141.8061  138.3431  162.3487 C.ar    1  UNL1        0.0874
      7 C         143.2822  138.5911  162.4466 C.ar    1  UNL1        0.0107
      8 C         144.0681  138.9355  161.2163 C.ar    1  UNL1        0.0370
      9 C         143.3780  139.0319  159.8880 C.ar    1  UNL1        0.1367
     10 O         144.1640  139.3763  158.6577 O.3     1  UNL1       -0.5054
     11 C         141.9018  138.7839  159.7900 C.ar    1  UNL1        0.0736
     12 C         141.1159  138.4395  161.0203 C.ar    1  UNL1        0.1460
     13 H         145.0860  139.5312  158.7189 H       1  UNL1        0.2922
     14 O         141.5917  137.0536  164.5940 O.2     1  UNL1       -0.2700
     15 C         141.0201  137.9987  163.5790 C.2     1  UNL1        0.2488
     16 N         139.6627  138.5993  163.7943 N.am    1  UNL1       -0.3024
     17 H         139.2875  139.2196  163.1282 H       1  UNL1        0.1497
     18 C         138.8767  138.2549  165.0246 C.3     1  UNL1        0.0720
     19 C         138.1796  137.2374  165.8782 C.3     1  UNL1        0.0213
     20 C         138.2126  138.6759  166.3020 C.3     1  UNL1        0.0213
     21 C         138.8336  141.5020  161.0260 C.3     1  UNL1        0.1056
     22 N         139.4294  141.6770  162.3915 N.3     1  UNL1       -0.2703
     23 C         138.5359  141.8759  163.5798 C.3     1  UNL1        0.0758
     24 C         139.1317  142.0509  164.9452 C.3     1  UNL1        0.0577
     25 C         140.6210  142.0270  165.1223 C.3     1  UNL1        0.1399
     26 C         141.5145  141.8281  163.9340 C.3     1  UNL1        0.0577
     27 C         140.9187  141.6531  162.5686 C.3     1  UNL1        0.0758
     28 C         142.0842  142.0258  165.4526 C.3     1  UNL1        0.0695
     29 C         142.2257  142.2321  166.9317 C.ar    1  UNL1        0.0161
     30 C         143.4295  142.3193  167.8222 C.ar    1  UNL1        0.0102
     31 C         143.2576  142.5352  169.2966 C.ar    1  UNL1        0.0576
     32 CL        144.4614  142.6225  170.1872 Cl      1  UNL1       -0.0823
     33 C         141.8819  142.6639  169.8804 C.ar    1  UNL1        0.0145
     34 C         140.6780  142.5766  168.9898 C.ar    1  UNL1        0.0374
     35 C         140.8499  142.3607  167.5154 C.ar    1  UNL1        0.1343
     36 O         139.8582  142.2340  166.3972 O.3     1  UNL1       -0.4825
@<TRIPOS>BOND
     1    14    15    2
     2    15    16   am
     3    16    18    1
     4    18    19    1
     5    19    20    1
     6    15     6    1
     7     6     7   ar
     8     7     8   ar
     9     8     9   ar
    10     9    10    1
    11     9    11   ar
    12    11    12   ar
    13    12     5    1
    14     5     4    1
    15     4     1    1
    16     1     2    1
    17     1    21    1
    18    21    22    1
    19    22    23    1
    20    23    24    1
    21    24    25    1
    22    25    26    1
    23    26    27    1
    24    25    28    1
    25    28    29    1
    26    29    30   ar
    27    30    31   ar
    28    31    32    1
    29    31    33   ar
    30    33    34   ar
    31    34    35   ar
    32    35    36    1
    33    20    18    1
    34    12     6   ar
    35    27    22    1
    36    35    29   ar
    37    36    25    1
    38    16    17    1
    39    10    13    1
    40     2     3    1
@<TRIPOS>MOLECULE
*****
 36 40 0 0 0
SMALL
GASTEIGER

@<TRIPOS>ATOM
      1 C         143.8101  142.1951  159.6630 C.3     1  UNL1        0.1700
      2 O         144.3397  141.3351  158.5540 O.3     1  UNL1       -0.3793
      3 H         143.6372  141.1764  157.9043 H       1  UNL1        0.2106
      4 C         142.3851  142.6629  159.6341 C.3     1  UNL1        0.2358
      5 O         141.3946  142.1113  160.6163 O.3     1  UNL1       -0.4725
      6 C         140.1905  142.3982  162.9006 C.ar    1  UNL1        0.0874
      7 C         139.6118  143.2868  163.9614 C.ar    1  UNL1        0.0107
      8 C         139.6586  144.7773  163.7989 C.ar    1  UNL1        0.0370
      9 C         140.2841  145.3791  162.5756 C.ar    1  UNL1        0.1367
     10 O         140.3309  146.8695  162.4131 O.3     1  UNL1       -0.5054
     11 C         140.8628  144.4904  161.5146 C.ar    1  UNL1        0.0736
     12 C         140.8160  143.0000  161.6771 C.ar    1  UNL1        0.1460
     13 H         139.9694  147.4246  163.0758 H       1  UNL1        0.2922
     14 O         139.8254  140.0346  161.8856 O.2     1  UNL1       -0.2700
     15 C         140.1437  140.9077  163.0630 C.2     1  UNL1        0.2488
     16 N         140.4151  140.2905  164.4029 N.am    1  UNL1       -0.3024
     17 H         140.6240  140.8636  165.1757 H       1  UNL1        0.1497
     18 C         140.3683  138.8000  164.5654 C.3     1  UNL1        0.0720
     19 C         139.5842  137.5427  164.7981 C.3     1  UNL1        0.0213
     20 C         141.0714  137.4759  164.6141 C.3     1  UNL1        0.0213
     21 C         144.7053  142.5873  160.8009 C.3     1  UNL1        0.1056
     22 N         144.3132  142.2593  162.2111 N.3     1  UNL1       -0.2703
     23 C         144.1737  140.8279  162.6372 C.3     1  UNL1        0.0758
     24 C         143.7816  140.5000  164.0474 C.3     1  UNL1        0.0577
     25 C         143.5290  141.6035  165.0315 C.3     1  UNL1        0.1399
     26 C         143.6685  143.0349  164.6055 C.3     1  UNL1        0.0577
     27 C         144.0606  143.3628  163.1953 C.3     1  UNL1        0.0758
     28 C         143.2457  142.5948  166.1211 C.3     1  UNL1        0.0695
     29 C         142.8930  141.8306  167.3628 C.ar    1  UNL1        0.0161
     30 C         142.5208  142.2784  168.7452 C.ar    1  UNL1        0.0102
     31 C         142.2139  141.2626  169.8054 C.ar    1  UNL1        0.0576
     32 CL        141.8417  141.7104  171.1877 Cl      1  UNL1       -0.0823
     33 C         142.2792  139.7991  169.4832 C.ar    1  UNL1        0.0145
     34 C         142.6514  139.3513  168.1008 C.ar    1  UNL1        0.0374
     35 C         142.9583  140.3671  167.0406 C.ar    1  UNL1        0.1343
     36 O         143.3514  140.2267  165.5999 O.3     1  UNL1       -0.4825
@<TRIPOS>BOND
     1    14    15    2
     2    15    16   am
     3    16    18    1
     4    18    19    1
     5    19    20    1
     6    15     6    1
     7     6     7   ar
     8     7     8   ar
     9     8     9   ar
    10     9    10    1
    11     9    11   ar
    12    11    12   ar
    13    12     5    1
    14     5     4    1
    15     4     1    1
    16     1     2    1
    17     1    21    1
    18    21    22    1
    19    22    23    1
    20    23    24    1
    21    24    25    1
    22    25    26    1
    23    26    27    1
    24    25    28    1
    25    28    29    1
    26    29    30   ar
    27    30    31   ar
    28    31    32    1
    29    31    33   ar
    30    33    34   ar
    31    34    35   ar
    32    35    36    1
    33    20    18    1
    34    12     6   ar
    35    27    22    1
    36    35    29   ar
    37    36    25    1
    38    16    17    1
    39    10    13    1
    40     2     3    1
@<TRIPOS>MOLECULE
*****
 36 40 0 0 0
SMALL
GASTEIGER

@<TRIPOS>ATOM
      1 C         138.7005  140.8575  160.0182 C.3     1  UNL1        0.1700
      2 O         139.2860  141.1401  158.6665 O.3     1  UNL1       -0.3793
      3 H         139.2222  140.3455  158.1139 H       1  UNL1        0.2106
      4 C         138.1379  139.5008  160.3231 C.3     1  UNL1        0.2358
      5 O         139.0568  138.3257  160.4802 O.3     1  UNL1       -0.4725
      6 C         141.1761  137.9848  161.9439 C.ar    1  UNL1        0.0874
      7 C         141.8020  137.6951  163.2759 C.ar    1  UNL1        0.0107
      8 C         140.9347  137.4566  164.4762 C.ar    1  UNL1        0.0370
      9 C         139.4414  137.5078  164.3446 C.ar    1  UNL1        0.1367
     10 O         138.5740  137.2692  165.5449 O.3     1  UNL1       -0.5054
     11 C         138.8154  137.7975  163.0125 C.ar    1  UNL1        0.0736
     12 C         139.6827  138.0360  161.8122 C.ar    1  UNL1        0.1460
     13 H         138.9650  137.0883  166.3770 H       1  UNL1        0.2922
     14 O         143.2030  137.3138  160.4635 O.2     1  UNL1       -0.2700
     15 C         142.0435  138.2233  160.7436 C.2     1  UNL1        0.2488
     16 N         141.7514  139.3713  159.8235 N.am    1  UNL1       -0.3024
     17 H         140.9905  139.9683  160.0073 H       1  UNL1        0.1497
     18 C         142.6188  139.6098  158.6231 C.3     1  UNL1        0.0720
     19 C         143.8357  140.2292  158.0022 C.3     1  UNL1        0.0213
     20 C         142.9042  139.4036  157.1651 C.3     1  UNL1        0.0213
     21 C         138.6777  141.9314  161.0652 C.3     1  UNL1        0.1056
     22 N         139.0996  141.6183  162.4702 N.3     1  UNL1       -0.2703
     23 C         138.0641  141.3984  163.5328 C.3     1  UNL1        0.0758
     24 C         138.4860  141.0852  164.9378 C.3     1  UNL1        0.0577
     25 C         139.9434  140.9921  165.2801 C.3     1  UNL1        0.1399
     26 C         140.9789  141.2120  164.2174 C.3     1  UNL1        0.0577
     27 C         140.5571  141.5251  162.8125 C.3     1  UNL1        0.0758
     28 C         141.3558  140.8672  165.7694 C.3     1  UNL1        0.0695
     29 C         141.3123  140.5468  167.2343 C.ar    1  UNL1        0.0161
     30 C         142.3973  140.3122  168.2431 C.ar    1  UNL1        0.0102
     31 C         142.0430  140.0044  169.6677 C.ar    1  UNL1        0.0576
     32 CL        143.1280  139.7699  170.6765 Cl      1  UNL1       -0.0823
     33 C         140.6037  139.9313  170.0837 C.ar    1  UNL1        0.0145
     34 C         139.5186  140.1659  169.0748 C.ar    1  UNL1        0.0374
     35 C         139.8729  140.4736  167.6501 C.ar    1  UNL1        0.1343
     36 O         139.0269  140.7488  166.4424 O.3     1  UNL1       -0.4825
@<TRIPOS>BOND
     1    14    15    2
     2    15    16   am
     3    16    18    1
     4    18    19    1
     5    19    20    1
     6    15     6    1
     7     6     7   ar
     8     7     8   ar
     9     8     9   ar
    10     9    10    1
    11     9    11   ar
    12    11    12   ar
    13    12     5    1
    14     5     4    1
    15     4     1    1
    16     1     2    1
    17     1    21    1
    18    21    22    1
    19    22    23    1
    20    23    24    1
    21    24    25    1
    22    25    26    1
    23    26    27    1
    24    25    28    1
    25    28    29    1
    26    29    30   ar
    27    30    31   ar
    28    31    32    1
    29    31    33   ar
    30    33    34   ar
    31    34    35   ar
    32    35    36    1
    33    20    18    1
    34    12     6   ar
    35    27    22    1
    36    35    29   ar
    37    36    25    1
    38    16    17    1
    39    10    13    1
    40     2     3    1
@<TRIPOS>MOLECULE
*****
 36 40 0 0 0
SMALL
GASTEIGER

@<TRIPOS>ATOM
      1 C         140.8006  144.7831  160.8606 C.3     1  UNL1        0.1700
      2 O         141.7100  145.5056  159.9115 O.3     1  UNL1       -0.3793
      3 H         141.7893  144.9970  159.0893 H       1  UNL1        0.2106
      4 C         140.1800  143.4781  160.4579 C.3     1  UNL1        0.2358
      5 O         140.7794  142.1859  160.9279 O.3     1  UNL1       -0.4725
      6 C         140.3140  140.0099  162.2689 C.ar    1  UNL1        0.0874
      7 C         139.4267  138.8417  162.5820 C.ar    1  UNL1        0.0107
      8 C         138.1178  138.6812  161.8672 C.ar    1  UNL1        0.0370
      9 C         137.6960  139.6890  160.8394 C.ar    1  UNL1        0.1367
     10 O         136.3870  139.5285  160.1247 O.3     1  UNL1       -0.5054
     11 C         138.5832  140.8573  160.5263 C.ar    1  UNL1        0.0736
     12 C         139.8922  141.0177  161.2410 C.ar    1  UNL1        0.1460
     13 H         135.8328  138.7988  160.3203 H       1  UNL1        0.2922
     14 O         141.7522  139.7453  164.4163 O.2     1  UNL1       -0.2700
     15 C         141.6229  140.1703  162.9836 C.2     1  UNL1        0.2488
     16 N         142.8026  140.7558  162.2656 N.am    1  UNL1       -0.3024
     17 H         142.7178  141.0347  161.3253 H       1  UNL1        0.1497
     18 C         144.1116  140.9162  162.9804 C.3     1  UNL1        0.0720
     19 C         145.3182  141.7437  163.3110 C.3     1  UNL1        0.0213
     20 C         145.1722  140.3667  163.8876 C.3     1  UNL1        0.0213
     21 C         140.5117  145.3654  162.2124 C.3     1  UNL1        0.1056
     22 N         140.6718  144.5217  163.4424 N.3     1  UNL1       -0.2703
     23 C         139.4664  144.1253  164.2421 C.3     1  UNL1        0.0758
     24 C         139.6265  143.2816  165.4719 C.3     1  UNL1        0.0577
     25 C         140.9922  142.8345  165.9021 C.3     1  UNL1        0.1399
     26 C         142.1977  143.2309  165.1023 C.3     1  UNL1        0.0577
     27 C         142.0375  144.0746  163.8725 C.3     1  UNL1        0.0758
     28 C         142.2873  142.3149  166.4523 C.3     1  UNL1        0.0695
     29 C         141.9809  141.5215  167.6880 C.ar    1  UNL1        0.0161
     30 C         142.8618  140.7763  168.6464 C.ar    1  UNL1        0.0102
     31 C         142.2583  140.0603  169.8182 C.ar    1  UNL1        0.0576
     32 CL        143.1392  139.3151  170.7766 Cl      1  UNL1       -0.0823
     33 C         140.7739  140.0896  170.0316 C.ar    1  UNL1        0.0145
     34 C         139.8929  140.8348  169.0732 C.ar    1  UNL1        0.0374
     35 C         140.4964  141.5508  167.9014 C.ar    1  UNL1        0.1343
     36 O         139.8854  142.3622  166.7977 O.3     1  UNL1       -0.4825
@<TRIPOS>BOND
     1    14    15    2
     2    15    16   am
     3    16    18    1
     4    18    19    1
     5    19    20    1
     6    15     6    1
     7     6     7   ar
     8     7     8   ar
     9     8     9   ar
    10     9    10    1
    11     9    11   ar
    12    11    12   ar
    13    12     5    1
    14     5     4    1
    15     4     1    1
    16     1     2    1
    17     1    21    1
    18    21    22    1
    19    22    23    1
    20    23    24    1
    21    24    25    1
    22    25    26    1
    23    26    27    1
    24    25    28    1
    25    28    29    1
    26    29    30   ar
    27    30    31   ar
    28    31    32    1
    29    31    33   ar
    30    33    34   ar
    31    34    35   ar
    32    35    36    1
    33    20    18    1
    34    12     6   ar
    35    27    22    1
    36    35    29   ar
    37    36    25    1
    38    16    17    1
    39    10    13    1
    40     2     3    1
@<TRIPOS>MOLECULE
*****
 36 40 0 0 0
SMALL
GASTEIGER

@<TRIPOS>ATOM
      1 C         138.2916  138.2908  161.5728 C.3     1  UNL1        0.1700
      2 O         136.9095  138.7880  161.2687 O.3     1  UNL1       -0.3793
      3 H         136.8883  139.1556  160.3713 H       1  UNL1        0.2106
      4 C         139.3757  138.4121  160.5432 C.3     1  UNL1        0.2358
      5 O         140.1784  139.6754  160.4445 O.3     1  UNL1       -0.4725
      6 C         141.8934  140.9701  161.9049 C.ar    1  UNL1        0.0874
      7 C         143.2412  141.0552  162.5577 C.ar    1  UNL1        0.0107
      8 C         144.2218  139.9308  162.4030 C.ar    1  UNL1        0.0370
      9 C         143.8546  138.7212  161.5955 C.ar    1  UNL1        0.1367
     10 O         144.8353  137.5967  161.4408 O.3     1  UNL1       -0.5054
     11 C         142.5068  138.6360  160.9426 C.ar    1  UNL1        0.0736
     12 C         141.5262  139.7605  161.0973 C.ar    1  UNL1        0.1460
     13 H         145.6772  137.6499  161.8486 H       1  UNL1        0.2922
     14 O         140.6991  143.0635  160.9346 O.2     1  UNL1       -0.2700
     15 C         140.9127  142.0946  162.0596 C.2     1  UNL1        0.2488
     16 N         140.1458  142.2502  163.3392 N.am    1  UNL1       -0.3024
     17 H         140.2860  141.6143  164.0776 H       1  UNL1        0.1497
     18 C         139.1652  143.3746  163.4939 C.3     1  UNL1        0.0720
     19 C         137.7930  143.9406  163.2776 C.3     1  UNL1        0.0213
     20 C         138.8389  144.7563  163.9782 C.3     1  UNL1        0.0213
     21 C         138.5896  137.6722  162.9064 C.3     1  UNL1        0.1056
     22 N         139.1917  138.5029  164.0007 N.3     1  UNL1       -0.2703
     23 C         138.3241  139.4220  164.8085 C.3     1  UNL1        0.0758
     24 C         138.9263  140.2526  165.9028 C.3     1  UNL1        0.0577
     25 C         140.3960  140.1642  166.1892 C.3     1  UNL1        0.1399
     26 C         141.2636  139.2451  165.3814 C.3     1  UNL1        0.0577
     27 C         140.6615  138.4145  164.2872 C.3     1  UNL1        0.0758
     28 C         141.8417  140.1818  166.5889 C.3     1  UNL1        0.0695
     29 C         141.9974  141.1516  167.7227 C.ar    1  UNL1        0.0161
     30 C         143.1936  141.5801  168.5199 C.ar    1  UNL1        0.0102
     31 C         143.0403  142.5903  169.6181 C.ar    1  UNL1        0.0576
     32 CL        144.2365  143.0188  170.4152 Cl      1  UNL1       -0.0823
     33 C         141.6909  143.1720  169.9191 C.ar    1  UNL1        0.0145
     34 C         140.4946  142.7435  169.1219 C.ar    1  UNL1        0.0374
     35 C         140.6479  141.7333  168.0237 C.ar    1  UNL1        0.1343
     36 O         139.6582  141.1231  167.0760 O.3     1  UNL1       -0.4825
@<TRIPOS>BOND
     1    14    15    2
     2    15    16   am
     3    16    18    1
     4    18    19    1
     5    19    20    1
     6    15     6    1
     7     6     7   ar
     8     7     8   ar
     9     8     9   ar
    10     9    10    1
    11     9    11   ar
    12    11    12   ar
    13    12     5    1
    14     5     4    1
    15     4     1    1
    16     1     2    1
    17     1    21    1
    18    21    22    1
    19    22    23    1
    20    23    24    1
    21    24    25    1
    22    25    26    1
    23    26    27    1
    24    25    28    1
    25    28    29    1
    26    29    30   ar
    27    30    31   ar
    28    31    32    1
    29    31    33   ar
    30    33    34   ar
    31    34    35   ar
    32    35    36    1
    33    20    18    1
    34    12     6   ar
    35    27    22    1
    36    35    29   ar
    37    36    25    1
    38    16    17    1
    39    10    13    1
    40     2     3    1
@<TRIPOS>MOLECULE
*****
 36 40 0 0 0
SMALL
GASTEIGER

@<TRIPOS>ATOM
      1 C         140.9673  144.5612  160.2278 C.3     1  UNL1        0.1700
      2 O         140.7380  145.9070  160.8493 O.3     1  UNL1       -0.3793
      3 H         139.9270  146.2966  160.4868 H       1  UNL1        0.2106
      4 C         140.0001  144.0296  159.2119 C.3     1  UNL1        0.2358
      5 O         138.7659  143.3040  159.6592 O.3     1  UNL1       -0.4725
      6 C         138.4785  141.1526  161.0872 C.ar    1  UNL1        0.0874
      7 C         138.4870  139.6569  161.1989 C.ar    1  UNL1        0.0107
      8 C         138.7912  138.8165  159.9942 C.ar    1  UNL1        0.0370
      9 C         139.0869  139.4720  158.6778 C.ar    1  UNL1        0.1367
     10 O         139.3911  138.6317  157.4731 O.3     1  UNL1       -0.5054
     11 C         139.0785  140.9679  158.5661 C.ar    1  UNL1        0.0736
     12 C         138.7743  141.8082  159.7708 C.ar    1  UNL1        0.1460
     13 H         139.3964  137.6973  157.5428 H       1  UNL1        0.2922
     14 O         136.9141  141.7585  163.0711 O.2     1  UNL1       -0.2700
     15 C         138.1743  141.9930  162.2920 C.2     1  UNL1        0.2488
     16 N         139.1303  143.0676  162.7176 N.am    1  UNL1       -0.3024
     17 H         139.9574  143.2215  162.2062 H       1  UNL1        0.1497
     18 C         138.8261  143.9079  163.9223 C.3     1  UNL1        0.0720
     19 C         139.2921  144.7938  165.0394 C.3     1  UNL1        0.0213
     20 C         137.8333  144.4775  164.8917 C.3     1  UNL1        0.0213
     21 C         142.1637  143.7470  160.6223 C.3     1  UNL1        0.1056
     22 N         142.2752  143.2045  162.0164 N.3     1  UNL1       -0.2703
     23 C         142.5993  144.1249  163.1555 C.3     1  UNL1        0.0758
     24 C         142.7109  143.5825  164.5495 C.3     1  UNL1        0.0577
     25 C         142.4984  142.1196  164.8043 C.3     1  UNL1        0.1399
     26 C         142.1743  141.1992  163.6651 C.3     1  UNL1        0.0577
     27 C         142.0628  141.7417  162.2712 C.3     1  UNL1        0.0758
     28 C         142.3133  140.6876  165.2106 C.3     1  UNL1        0.0695
     29 C         142.5152  140.5969  166.6943 C.ar    1  UNL1        0.0161
     30 C         142.4569  139.4392  167.6462 C.ar    1  UNL1        0.0102
     31 C         142.7084  139.6574  169.1088 C.ar    1  UNL1        0.0576
     32 CL        142.6501  138.4997  170.0608 Cl      1  UNL1       -0.0823
     33 C         143.0182  141.0333  169.6194 C.ar    1  UNL1        0.0145
     34 C         143.0764  142.1911  168.6675 C.ar    1  UNL1        0.0374
     35 C         142.8249  141.9729  167.2049 C.ar    1  UNL1        0.1343
     36 O         142.8146  142.9140  166.0369 O.3     1  UNL1       -0.4825
@<TRIPOS>BOND
     1    14    15    2
     2    15    16   am
     3    16    18    1
     4    18    19    1
     5    19    20    1
     6    15     6    1
     7     6     7   ar
     8     7     8   ar
     9     8     9   ar
    10     9    10    1
    11     9    11   ar
    12    11    12   ar
    13    12     5    1
    14     5     4    1
    15     4     1    1
    16     1     2    1
    17     1    21    1
    18    21    22    1
    19    22    23    1
    20    23    24    1
    21    24    25    1
    22    25    26    1
    23    26    27    1
    24    25    28    1
    25    28    29    1
    26    29    30   ar
    27    30    31   ar
    28    31    32    1
    29    31    33   ar
    30    33    34   ar
    31    34    35   ar
    32    35    36    1
    33    20    18    1
    34    12     6   ar
    35    27    22    1
    36    35    29   ar
    37    36    25    1
    38    16    17    1
    39    10    13    1
    40     2     3    1
@<TRIPOS>MOLECULE
*****
 36 40 0 0 0
SMALL
GASTEIGER

@<TRIPOS>ATOM
      1 C         140.7052  144.9844  160.4094 C.3     1  UNL1        0.1700
      2 O         142.1343  145.1594  159.9887 O.3     1  UNL1       -0.3793
      3 H         142.2521  144.8107  159.0912 H       1  UNL1        0.2106
      4 C         139.7204  144.3481  159.4738 C.3     1  UNL1        0.2358
      5 O         139.6727  142.8551  159.3370 O.3     1  UNL1       -0.4725
      6 C         140.4789  141.0057  160.9741 C.ar    1  UNL1        0.0874
      7 C         140.2451  140.1490  162.1829 C.ar    1  UNL1        0.0107
      8 C         138.9714  140.2847  162.9635 C.ar    1  UNL1        0.0370
      9 C         137.9315  141.2773  162.5352 C.ar    1  UNL1        0.1367
     10 O         136.6578  141.4130  163.3158 O.3     1  UNL1       -0.5054
     11 C         138.1652  142.1341  161.3263 C.ar    1  UNL1        0.0736
     12 C         139.4389  141.9983  160.5458 C.ar    1  UNL1        0.1460
     13 H         136.5117  140.8778  164.0709 H       1  UNL1        0.2922
     14 O         142.3856  139.5212  160.0199 O.2     1  UNL1       -0.2700
     15 C         141.7526  140.8700  160.1936 C.2     1  UNL1        0.2488
     16 N         142.3932  142.0829  159.5867 N.am    1  UNL1       -0.3024
     17 H         141.9778  142.9681  159.7008 H       1  UNL1        0.1497
     18 C         143.6669  141.9472  158.8062 C.3     1  UNL1        0.0720
     19 C         144.9953  142.4993  158.3815 C.3     1  UNL1        0.0213
     20 C         144.5446  141.1598  157.8790 C.3     1  UNL1        0.0213
     21 C         140.2608  145.4458  161.7658 C.3     1  UNL1        0.1056
     22 N         140.4248  144.5462  162.9549 N.3     1  UNL1       -0.2703
     23 C         139.3328  144.4500  163.9787 C.3     1  UNL1        0.0758
     24 C         139.4968  143.5505  165.1678 C.3     1  UNL1        0.0577
     25 C         140.7527  142.7473  165.3331 C.3     1  UNL1        0.1399
     26 C         141.8447  142.8435  164.3093 C.3     1  UNL1        0.0577
     27 C         141.6808  143.7430  163.1202 C.3     1  UNL1        0.0758
     28 C         141.9458  141.8883  165.6310 C.3     1  UNL1        0.0695
     29 C         141.6829  141.1589  166.9152 C.ar    1  UNL1        0.0161
     30 C         142.5027  140.1759  167.6972 C.ar    1  UNL1        0.0102
     31 C         141.9668  139.6009  168.9748 C.ar    1  UNL1        0.0576
     32 CL        142.7866  138.6179  169.7568 Cl      1  UNL1       -0.0823
     33 C         140.6112  140.0091  169.4705 C.ar    1  UNL1        0.0145
     34 C         139.7914  140.9922  168.6885 C.ar    1  UNL1        0.0374
     35 C         140.3272  141.5671  167.4109 C.ar    1  UNL1        0.1343
     36 O         139.7524  142.5487  166.4331 O.3     1  UNL1       -0.4825
@<TRIPOS>BOND
     1    14    15    2
     2    15    16   am
     3    16    18    1
     4    18    19    1
     5    19    20    1
     6    15     6    1
     7     6     7   ar
     8     7     8   ar
     9     8     9   ar
    10     9    10    1
    11     9    11   ar
    12    11    12   ar
    13    12     5    1
    14     5     4    1
    15     4     1    1
    16     1     2    1
    17     1    21    1
    18    21    22    1
    19    22    23    1
    20    23    24    1
    21    24    25    1
    22    25    26    1
    23    26    27    1
    24    25    28    1
    25    28    29    1
    26    29    30   ar
    27    30    31   ar
    28    31    32    1
    29    31    33   ar
    30    33    34   ar
    31    34    35   ar
    32    35    36    1
    33    20    18    1
    34    12     6   ar
    35    27    22    1
    36    35    29   ar
    37    36    25    1
    38    16    17    1
    39    10    13    1
    40     2     3    1
@<TRIPOS>MOLECULE
*****
 36 40 0 0 0
SMALL
GASTEIGER

@<TRIPOS>ATOM
      1 C         140.8178  144.9415  161.0109 C.3     1  UNL1        0.1700
      2 O         141.8355  145.5055  160.0643 O.3     1  UNL1       -0.3793
      3 H         141.7661  145.0542  159.2085 H       1  UNL1        0.2106
      4 C         139.8989  143.8456  160.5585 C.3     1  UNL1        0.2358
      5 O         140.1429  142.4326  160.9988 O.3     1  UNL1       -0.4725
      6 C         141.8293  140.4596  161.1142 C.ar    1  UNL1        0.0874
      7 C         142.9414  139.6636  160.4981 C.ar    1  UNL1        0.0107
      8 C         143.4792  140.0445  159.1506 C.ar    1  UNL1        0.0370
      9 C         142.9049  141.2214  158.4192 C.ar    1  UNL1        0.1367
     10 O         143.4427  141.6023  157.0717 O.3     1  UNL1       -0.5054
     11 C         141.7928  142.0175  159.0353 C.ar    1  UNL1        0.0736
     12 C         141.2550  141.6366  160.3827 C.ar    1  UNL1        0.1460
     13 H         144.1374  141.1050  156.6869 H       1  UNL1        0.2922
     14 O         142.2088  139.5042  163.5002 O.2     1  UNL1       -0.2700
     15 C         141.2915  140.0787  162.4616 C.2     1  UNL1        0.2488
     16 N         139.8365  140.2722  162.7705 N.am    1  UNL1       -0.3024
     17 H         139.2345  140.6493  162.0889 H       1  UNL1        0.1497
     18 C         139.2987  139.8913  164.1180 C.3     1  UNL1        0.0720
     19 C         139.3249  138.9966  165.3216 C.3     1  UNL1        0.0213
     20 C         138.3410  140.1264  165.2482 C.3     1  UNL1        0.0213
     21 C         140.7190  145.4733  162.4100 C.3     1  UNL1        0.1056
     22 N         140.8299  144.5380  163.5775 N.3     1  UNL1       -0.2703
     23 C         139.7399  144.4907  164.6068 C.3     1  UNL1        0.0758
     24 C         139.8508  143.5555  165.7742 C.3     1  UNL1        0.0577
     25 C         141.0518  142.6675  165.9123 C.3     1  UNL1        0.1399
     26 C         142.1419  142.7148  164.8831 C.3     1  UNL1        0.0577
     27 C         142.0309  143.6501  163.7156 C.3     1  UNL1        0.0758
     28 C         142.1872  141.7251  166.1823 C.3     1  UNL1        0.0695
     29 C         141.8839  140.9855  167.4517 C.ar    1  UNL1        0.0161
     30 C         142.6414  139.9329  168.2055 C.ar    1  UNL1        0.0102
     31 C         142.0761  139.3656  169.4738 C.ar    1  UNL1        0.0576
     32 CL        142.8335  138.3130  170.2276 Cl      1  UNL1       -0.0823
     33 C         140.7533  139.8509  169.9883 C.ar    1  UNL1        0.0145
     34 C         139.9958  140.9036  169.2345 C.ar    1  UNL1        0.0374
     35 C         140.5611  141.4709  167.9662 C.ar    1  UNL1        0.1343
     36 O         140.0469  142.5104  167.0149 O.3     1  UNL1       -0.4825
@<TRIPOS>BOND
     1    14    15    2
     2    15    16   am
     3    16    18    1
     4    18    19    1
     5    19    20    1
     6    15     6    1
     7     6     7   ar
     8     7     8   ar
     9     8     9   ar
    10     9    10    1
    11     9    11   ar
    12    11    12   ar
    13    12     5    1
    14     5     4    1
    15     4     1    1
    16     1     2    1
    17     1    21    1
    18    21    22    1
    19    22    23    1
    20    23    24    1
    21    24    25    1
    22    25    26    1
    23    26    27    1
    24    25    28    1
    25    28    29    1
    26    29    30   ar
    27    30    31   ar
    28    31    32    1
    29    31    33   ar
    30    33    34   ar
    31    34    35   ar
    32    35    36    1
    33    20    18    1
    34    12     6   ar
    35    27    22    1
    36    35    29   ar
    37    36    25    1
    38    16    17    1
    39    10    13    1
    40     2     3    1
