@<TRIPOS>MOLECULE
*****
 36 39 0 0 0
SMALL
GASTEIGER

@<TRIPOS>ATOM
      1 C         143.2223  141.3049  161.4550 C.2     1  UNL1        0.1397
      2 C         143.0960  141.7366  160.0241 C.2     1  UNL1        0.1355
      3 N         142.7374  140.7344  158.9672 N.pl3   1  UNL1       -0.1998
      4 C         142.5051  139.3005  159.3413 C.2     1  UNL1        0.3442
      5 N         142.6314  138.8688  160.7722 N.2     1  UNL1       -0.0580
      6 C         142.9900  139.8710  161.8291 C.3     1  UNL1        0.2692
      7 H         142.6545  141.0177  158.0280 H       1  UNL1        0.2983
      8 C         143.1163  139.4393  163.2601 C.ar    1  UNL1        0.0371
      9 C         144.4706  139.1657  163.8442 C.ar    1  UNL1        0.0030
     10 C         144.5970  138.7340  165.2751 C.ar    1  UNL1        0.0295
     11 C         143.3690  138.5758  166.1221 C.ar    1  UNL1        0.1406
     12 F         143.4954  138.1441  167.5530 F       1  UNL1       -0.2042
     13 C         142.0148  138.8493  165.5380 C.ar    1  UNL1        0.0362
     14 C         141.8884  139.2811  164.1070 C.ar    1  UNL1        0.0372
     15 BR        140.5342  139.5546  163.5229 Br      1  UNL1       -0.0491
     16 C         142.1465  138.2983  158.2844 C.ar    1  UNL1        0.1931
     17 N         143.0371  137.2097  157.7631 N.ar    1  UNL1       -0.2297
     18 C         142.2754  136.4473  156.7198 C.ar    1  UNL1        0.1067
     19 C         140.9139  137.0647  156.5963 C.ar    1  UNL1        0.0577
     20 S         140.8343  138.2087  157.5632 S.2     1  UNL1       -0.0586
     21 C         143.5809  142.3071  162.5119 C.2     1  UNL1        0.3447
     22 O         144.9959  142.7880  162.6402 O.2     1  UNL1       -0.2450
     23 O         142.5246  142.8284  163.4405 O.3     1  UNL1       -0.4455
     24 C         143.2988  142.3474  165.8735 C.3     1  UNL1        0.0513
     25 C         142.9032  143.3231  164.8050 C.3     1  UNL1        0.2089
     26 C         143.3283  143.1705  159.6499 C.3     1  UNL1        0.1405
     27 N         142.1660  144.1101  159.5225 N.3     1  UNL1       -0.2617
     28 C         141.6682  144.5073  158.1644 C.3     1  UNL1        0.1050
     29 C         140.5059  145.4470  158.0369 C.3     1  UNL1        0.1594
     30 O         139.8415  145.9893  159.2675 O.3     1  UNL1       -0.3530
     31 C         140.3393  145.5921  160.6256 C.3     1  UNL1        0.1367
     32 C         141.5016  144.6525  160.7531 C.3     1  UNL1        0.1028
     33 C         139.6749  146.1345  161.8562 C.3     1  UNL1        0.0726
     34 C         139.0628  145.1960  162.8535 C.2     1  UNL1        0.0528
     35 O         139.7651  144.9161  164.1491 O.co2   1  UNL1       -0.5491
     36 O         137.7485  144.5376  162.5553 O.co2   1  UNL1       -0.5491
@<TRIPOS>UNITY_ATOM_ATTR
35 1
charge -1
@<TRIPOS>BOND
     1    24    25    1
     2    25    23    1
     3    23    21    1
     4    21    22    2
     5    21     1    1
     6     1     2    2
     7     2    26    1
     8    26    27    1
     9    27    28    1
    10    28    29    1
    11    29    30    1
    12    30    31    1
    13    31    33    1
    14    33    34    1
    15    34    35   ar
    16    34    36   ar
    17    31    32    1
    18     2     3    1
    19     3     4    1
    20     4    16    1
    21    16    17   ar
    22    17    18   ar
    23    18    19   ar
    24    19    20   ar
    25     4     5    2
    26     5     6    1
    27     6     8    1
    28     8     9   ar
    29     9    10   ar
    30    10    11   ar
    31    11    12    1
    32    11    13   ar
    33    13    14   ar
    34    14    15    1
    35     6     1    1
    36    14     8   ar
    37    32    27    1
    38    20    16   ar
    39     3     7    1
@<TRIPOS>MOLECULE
*****
 36 39 0 0 0
SMALL
GASTEIGER

@<TRIPOS>ATOM
      1 C         142.2230  140.1611  164.2758 C.2     1  UNL1        0.1397
      2 C         142.7166  140.4581  162.8909 C.2     1  UNL1        0.1355
      3 N         142.2677  141.7036  162.1857 N.pl3   1  UNL1       -0.1998
      4 C         141.3254  142.6521  162.8655 C.2     1  UNL1        0.3442
      5 N         140.8318  142.3551  164.2505 N.2     1  UNL1       -0.0580
      6 C         141.2806  141.1096  164.9556 C.3     1  UNL1        0.2692
      7 H         142.5917  141.8986  161.2767 H       1  UNL1        0.2983
      8 C         140.7870  140.8126  166.3407 C.ar    1  UNL1        0.0371
      9 C         139.5214  140.0312  166.5343 C.ar    1  UNL1        0.0030
     10 C         139.0278  139.7342  167.9192 C.ar    1  UNL1        0.0295
     11 C         139.7998  140.2186  169.1106 C.ar    1  UNL1        0.1406
     12 F         139.3062  139.9216  170.4956 F       1  UNL1       -0.2042
     13 C         141.0655  141.0001  168.9170 C.ar    1  UNL1        0.0362
     14 C         141.5591  141.2971  167.5320 C.ar    1  UNL1        0.0372
     15 BR        142.8247  142.0785  167.3383 Br      1  UNL1       -0.0491
     16 C         140.8765  143.8977  162.1604 C.ar    1  UNL1        0.1931
     17 N         141.0235  144.1829  160.6951 N.ar    1  UNL1       -0.2297
     18 C         140.4397  145.5382  160.4259 C.ar    1  UNL1        0.1067
     19 C         139.9319  146.0905  161.7247 C.ar    1  UNL1        0.0577
     20 S         140.2019  145.0766  162.7967 S.2     1  UNL1       -0.0586
     21 C         142.6718  138.9156  164.9809 C.2     1  UNL1        0.3447
     22 O         144.0080  138.8792  165.6616 O.2     1  UNL1       -0.2450
     23 O         141.7845  137.7064  165.0054 O.3     1  UNL1       -0.4455
     24 C         139.5935  137.6438  163.6105 C.3     1  UNL1        0.0513
     25 C         141.0439  137.2945  163.7678 C.3     1  UNL1        0.2089
     26 C         143.6590  139.5096  162.2110 C.3     1  UNL1        0.1405
     27 N         143.4954  139.2075  160.7509 N.3     1  UNL1       -0.2617
     28 C         142.9102  137.8962  160.3172 C.3     1  UNL1        0.1050
     29 C         142.7466  137.5942  158.8570 C.3     1  UNL1        0.1594
     30 O         143.1682  138.6035  157.8305 O.3     1  UNL1       -0.3530
     31 C         143.7534  139.9148  158.2642 C.3     1  UNL1        0.1367
     32 C         143.9170  140.2168  159.7243 C.3     1  UNL1        0.1028
     33 C         144.1750  140.9240  157.2378 C.3     1  UNL1        0.0726
     34 C         145.3769  140.6633  156.3790 C.2     1  UNL1        0.0528
     35 O         145.5479  139.3301  155.7131 O.co2   1  UNL1       -0.5491
     36 O         146.4078  141.7357  156.1862 O.co2   1  UNL1       -0.5491
@<TRIPOS>UNITY_ATOM_ATTR
35 1
charge -1
@<TRIPOS>BOND
     1    24    25    1
     2    25    23    1
     3    23    21    1
     4    21    22    2
     5    21     1    1
     6     1     2    2
     7     2    26    1
     8    26    27    1
     9    27    28    1
    10    28    29    1
    11    29    30    1
    12    30    31    1
    13    31    33    1
    14    33    34    1
    15    34    35   ar
    16    34    36   ar
    17    31    32    1
    18     2     3    1
    19     3     4    1
    20     4    16    1
    21    16    17   ar
    22    17    18   ar
    23    18    19   ar
    24    19    20   ar
    25     4     5    2
    26     5     6    1
    27     6     8    1
    28     8     9   ar
    29     9    10   ar
    30    10    11   ar
    31    11    12    1
    32    11    13   ar
    33    13    14   ar
    34    14    15    1
    35     6     1    1
    36    14     8   ar
    37    32    27    1
    38    20    16   ar
    39     3     7    1
@<TRIPOS>MOLECULE
*****
 36 39 0 0 0
SMALL
GASTEIGER

@<TRIPOS>ATOM
      1 C         139.1767  141.5958  160.7937 C.2     1  UNL1        0.1397
      2 C         139.3223  141.0366  159.4095 C.2     1  UNL1        0.1355
      3 N         139.5129  141.9608  158.2435 N.pl3   1  UNL1       -0.1998
      4 C         139.5578  143.4441  158.4616 C.2     1  UNL1        0.3442
      5 N         139.4121  144.0033  159.8458 N.2     1  UNL1       -0.0580
      6 C         139.2215  143.0792  161.0119 C.3     1  UNL1        0.2692
      7 H         139.6085  141.5938  157.3350 H       1  UNL1        0.2983
      8 C         139.0758  143.6384  162.3961 C.ar    1  UNL1        0.0371
      9 C         137.7113  143.8188  162.9923 C.ar    1  UNL1        0.0030
     10 C         137.5655  144.3780  164.3765 C.ar    1  UNL1        0.0295
     11 C         138.7844  144.7569  165.1645 C.ar    1  UNL1        0.1406
     12 F         138.6386  145.3161  166.5487 F       1  UNL1       -0.2042
     13 C         140.1489  144.5765  164.5683 C.ar    1  UNL1        0.0362
     14 C         140.2946  144.0173  163.1841 C.ar    1  UNL1        0.0372
     15 BR        141.6592  143.8369  162.5878 Br      1  UNL1       -0.0491
     16 C         139.7483  144.3683  157.2956 C.ar    1  UNL1        0.1931
     17 N         139.1966  144.1710  155.9148 N.ar    1  UNL1       -0.2297
     18 C         139.6313  145.3328  155.0715 C.ar    1  UNL1        0.1067
     19 C         140.4518  146.2481  155.9310 C.ar    1  UNL1        0.0577
     20 S         140.5241  145.6521  157.3056 S.2     1  UNL1       -0.0586
     21 C         138.9861  140.6717  161.9597 C.2     1  UNL1        0.3447
     22 O         137.6496  140.0353  162.2017 O.2     1  UNL1       -0.2450
     23 O         140.1321  140.3839  162.8837 O.3     1  UNL1       -0.4455
     24 C         139.2514  141.0184  165.2442 C.3     1  UNL1        0.0513
     25 C         139.8683  140.0164  164.3139 C.3     1  UNL1        0.2089
     26 C         139.2775  139.5532  159.1913 C.3     1  UNL1        0.1405
     27 N         140.5496  138.7879  158.9770 N.3     1  UNL1       -0.2617
     28 C         140.8334  138.1630  157.6432 C.3     1  UNL1        0.1050
     29 C         142.1056  137.3976  157.4290 C.3     1  UNL1        0.1594
     30 O         143.0939  137.2571  158.5486 O.3     1  UNL1       -0.3530
     31 C         142.8101  137.8820  159.8824 C.3     1  UNL1        0.1367
     32 C         141.5380  138.6473  160.0966 C.3     1  UNL1        0.1028
     33 C         143.7984  137.7414  161.0020 C.3     1  UNL1        0.0726
     34 C         143.6313  138.5481  162.2556 C.2     1  UNL1        0.0528
     35 O         144.3973  139.8255  162.4332 O.co2   1  UNL1       -0.5491
     36 O         142.6982  138.0774  163.3315 O.co2   1  UNL1       -0.5491
@<TRIPOS>UNITY_ATOM_ATTR
35 1
charge -1
@<TRIPOS>BOND
     1    24    25    1
     2    25    23    1
     3    23    21    1
     4    21    22    2
     5    21     1    1
     6     1     2    2
     7     2    26    1
     8    26    27    1
     9    27    28    1
    10    28    29    1
    11    29    30    1
    12    30    31    1
    13    31    33    1
    14    33    34    1
    15    34    35   ar
    16    34    36   ar
    17    31    32    1
    18     2     3    1
    19     3     4    1
    20     4    16    1
    21    16    17   ar
    22    17    18   ar
    23    18    19   ar
    24    19    20   ar
    25     4     5    2
    26     5     6    1
    27     6     8    1
    28     8     9   ar
    29     9    10   ar
    30    10    11   ar
    31    11    12    1
    32    11    13   ar
    33    13    14   ar
    34    14    15    1
    35     6     1    1
    36    14     8   ar
    37    32    27    1
    38    20    16   ar
    39     3     7    1
@<TRIPOS>MOLECULE
*****
 36 39 0 0 0
SMALL
GASTEIGER

@<TRIPOS>ATOM
      1 C         141.8714  140.0099  163.9184 C.2     1  UNL1        0.1397
      2 C         142.2330  140.2870  162.4893 C.2     1  UNL1        0.1355
      3 N         141.8251  141.5811  161.8498 N.pl3   1  UNL1       -0.1998
      4 C         141.0556  142.5981  162.6394 C.2     1  UNL1        0.3442
      5 N         140.6940  142.3210  164.0685 N.2     1  UNL1       -0.0580
      6 C         141.1019  141.0269  164.7080 C.3     1  UNL1        0.2692
      7 H         142.0625  141.7630  160.9118 H       1  UNL1        0.2983
      8 C         140.7402  140.7498  166.1372 C.ar    1  UNL1        0.0371
      9 C         139.4787  140.0055  166.4609 C.ar    1  UNL1        0.0030
     10 C         139.1170  139.7284  167.8900 C.ar    1  UNL1        0.0295
     11 C         140.0169  140.1956  168.9955 C.ar    1  UNL1        0.1406
     12 F         139.6552  139.9185  170.4246 F       1  UNL1       -0.2042
     13 C         141.2783  140.9399  168.6719 C.ar    1  UNL1        0.0362
     14 C         141.6400  141.2170  167.2427 C.ar    1  UNL1        0.0372
     15 BR        142.9015  141.9612  166.9190 Br      1  UNL1       -0.0491
     16 C         140.6477  143.8922  161.9999 C.ar    1  UNL1        0.1931
     17 N         140.8855  144.2832  160.5715 N.ar    1  UNL1       -0.2297
     18 C         140.3151  145.6552  160.3653 C.ar    1  UNL1        0.1067
     19 C         139.7248  146.1120  161.6664 C.ar    1  UNL1        0.0577
     20 S         139.9303  145.0224  162.6766 S.2     1  UNL1       -0.0586
     21 C         142.2793  138.7158  164.5579 C.2     1  UNL1        0.3447
     22 O         143.6515  138.5695  165.1458 O.2     1  UNL1       -0.2450
     23 O         141.3151  137.5680  164.6095 O.3     1  UNL1       -0.4455
     24 C         138.9914  137.7397  163.4601 C.3     1  UNL1        0.0513
     25 C         140.4211  137.2863  163.4384 C.3     1  UNL1        0.2089
     26 C         143.0026  139.2700  161.6996 C.3     1  UNL1        0.1405
     27 N         142.9562  139.2927  160.2005 N.3     1  UNL1       -0.2617
     28 C         143.8189  140.2539  159.4379 C.3     1  UNL1        0.1050
     29 C         143.7724  140.2765  157.9387 C.3     1  UNL1        0.1594
     30 O         142.8632  139.3379  157.2023 O.3     1  UNL1       -0.3530
     31 C         142.0004  138.3767  157.9650 C.3     1  UNL1        0.1367
     32 C         142.0469  138.3540  159.4641 C.3     1  UNL1        0.1028
     33 C         141.0912  137.4381  157.2286 C.3     1  UNL1        0.0726
     34 C         139.6587  137.8140  156.9904 C.2     1  UNL1        0.0528
     35 O         138.7956  136.9598  156.1098 O.co2   1  UNL1       -0.5491
     36 O         139.0893  139.0440  157.6329 O.co2   1  UNL1       -0.5491
@<TRIPOS>UNITY_ATOM_ATTR
35 1
charge -1
@<TRIPOS>BOND
     1    24    25    1
     2    25    23    1
     3    23    21    1
     4    21    22    2
     5    21     1    1
     6     1     2    2
     7     2    26    1
     8    26    27    1
     9    27    28    1
    10    28    29    1
    11    29    30    1
    12    30    31    1
    13    31    33    1
    14    33    34    1
    15    34    35   ar
    16    34    36   ar
    17    31    32    1
    18     2     3    1
    19     3     4    1
    20     4    16    1
    21    16    17   ar
    22    17    18   ar
    23    18    19   ar
    24    19    20   ar
    25     4     5    2
    26     5     6    1
    27     6     8    1
    28     8     9   ar
    29     9    10   ar
    30    10    11   ar
    31    11    12    1
    32    11    13   ar
    33    13    14   ar
    34    14    15    1
    35     6     1    1
    36    14     8   ar
    37    32    27    1
    38    20    16   ar
    39     3     7    1
@<TRIPOS>MOLECULE
*****
 36 39 0 0 0
SMALL
GASTEIGER

@<TRIPOS>ATOM
      1 C         142.1643  140.4380  161.2139 C.2     1  UNL1        0.1397
      2 C         142.9063  141.0241  160.0495 C.2     1  UNL1        0.1355
      3 N         143.1237  140.2070  158.8105 N.pl3   1  UNL1       -0.1998
      4 C         142.5991  138.8037  158.7359 C.2     1  UNL1        0.3442
      5 N         141.8571  138.2176  159.9003 N.2     1  UNL1       -0.0580
      6 C         141.6397  139.0347  161.1393 C.3     1  UNL1        0.2692
      7 H         143.6107  140.5917  158.0463 H       1  UNL1        0.2983
      8 C         140.8977  138.4485  162.3037 C.ar    1  UNL1        0.0371
      9 C         141.6555  137.8507  163.4518 C.ar    1  UNL1        0.0030
     10 C         140.9136  137.2645  164.6162 C.ar    1  UNL1        0.0295
     11 C         139.4137  137.2761  164.6325 C.ar    1  UNL1        0.1406
     12 F         138.6717  136.6899  165.7969 F       1  UNL1       -0.2042
     13 C         138.6558  137.8739  163.4844 C.ar    1  UNL1        0.0362
     14 C         139.3978  138.4601  162.3199 C.ar    1  UNL1        0.0372
     15 BR        138.6400  139.0580  161.1718 Br      1  UNL1       -0.0491
     16 C         142.8165  137.9866  157.4970 C.ar    1  UNL1        0.1931
     17 N         142.8825  136.4896  157.4283 N.ar    1  UNL1       -0.2297
     18 C         143.1129  136.1008  155.9980 C.ar    1  UNL1        0.1067
     19 C         143.1893  137.3575  155.1826 C.ar    1  UNL1        0.0577
     20 S         143.0062  138.5230  156.1090 S.2     1  UNL1       -0.0586
     21 C         141.9469  141.2551  162.4528 C.2     1  UNL1        0.3447
     22 O         143.0920  141.5264  163.3829 O.2     1  UNL1       -0.2450
     23 O         140.5843  141.8009  162.7618 O.3     1  UNL1       -0.4455
     24 C         138.5129  141.6092  164.3182 C.3     1  UNL1        0.0513
     25 C         140.0013  141.6304  164.1333 C.3     1  UNL1        0.2089
     26 C         143.4309  142.4275  160.1240 C.3     1  UNL1        0.1405
     27 N         142.5428  143.5804  159.7610 N.3     1  UNL1       -0.2617
     28 C         142.5253  144.0997  158.3539 C.3     1  UNL1        0.1050
     29 C         141.6371  145.2527  157.9909 C.3     1  UNL1        0.1594
     30 O         140.7665  145.8865  159.0351 O.3     1  UNL1       -0.3530
     31 C         140.7840  145.3673  160.4423 C.3     1  UNL1        0.1367
     32 C         141.6721  144.2143  160.8052 C.3     1  UNL1        0.1028
     33 C         139.9134  146.0010  161.4864 C.3     1  UNL1        0.0726
     34 C         139.1800  145.1421  162.4737 C.2     1  UNL1        0.0528
     35 O         139.5725  145.1612  163.9213 O.co2   1  UNL1       -0.5491
     36 O         138.0543  144.2643  162.0133 O.co2   1  UNL1       -0.5491
@<TRIPOS>UNITY_ATOM_ATTR
35 1
charge -1
@<TRIPOS>BOND
     1    24    25    1
     2    25    23    1
     3    23    21    1
     4    21    22    2
     5    21     1    1
     6     1     2    2
     7     2    26    1
     8    26    27    1
     9    27    28    1
    10    28    29    1
    11    29    30    1
    12    30    31    1
    13    31    33    1
    14    33    34    1
    15    34    35   ar
    16    34    36   ar
    17    31    32    1
    18     2     3    1
    19     3     4    1
    20     4    16    1
    21    16    17   ar
    22    17    18   ar
    23    18    19   ar
    24    19    20   ar
    25     4     5    2
    26     5     6    1
    27     6     8    1
    28     8     9   ar
    29     9    10   ar
    30    10    11   ar
    31    11    12    1
    32    11    13   ar
    33    13    14   ar
    34    14    15    1
    35     6     1    1
    36    14     8   ar
    37    32    27    1
    38    20    16   ar
    39     3     7    1
@<TRIPOS>MOLECULE
*****
 36 39 0 0 0
SMALL
GASTEIGER

@<TRIPOS>ATOM
      1 C         141.5158  139.8774  164.1757 C.2     1  UNL1        0.1397
      2 C         141.7488  140.0702  162.7066 C.2     1  UNL1        0.1355
      3 N         141.4161  141.3823  162.0603 N.pl3   1  UNL1       -0.1998
      4 C         140.8505  142.5017  162.8832 C.2     1  UNL1        0.3442
      5 N         140.6175  142.3088  164.3523 N.2     1  UNL1       -0.0580
      6 C         140.9502  140.9967  164.9986 C.3     1  UNL1        0.2692
      7 H         141.5690  141.5089  161.0960 H       1  UNL1        0.2983
      8 C         140.7172  140.8040  166.4679 C.ar    1  UNL1        0.0371
      9 C         139.4598  140.1412  166.9472 C.ar    1  UNL1        0.0030
     10 C         139.2268  139.9484  168.4164 C.ar    1  UNL1        0.0295
     11 C         140.2511  140.4184  169.4063 C.ar    1  UNL1        0.1406
     12 F         140.0181  140.2256  170.8754 F       1  UNL1       -0.2042
     13 C         141.5085  141.0812  168.9269 C.ar    1  UNL1        0.0362
     14 C         141.7415  141.2740  167.4577 C.ar    1  UNL1        0.0372
     15 BR        142.9989  141.9367  166.9784 Br      1  UNL1       -0.0491
     16 C         140.5178  143.8138  162.2369 C.ar    1  UNL1        0.1931
     17 N         140.8376  144.2075  160.8252 N.ar    1  UNL1       -0.2297
     18 C         140.3244  145.5996  160.6046 C.ar    1  UNL1        0.1067
     19 C         139.6874  146.0663  161.8800 C.ar    1  UNL1        0.0577
     20 S         139.8070  144.9626  162.8887 S.2     1  UNL1       -0.0586
     21 C         141.8485  138.5653  164.8220 C.2     1  UNL1        0.3447
     22 O         143.1221  138.4139  165.5997 O.2     1  UNL1       -0.2450
     23 O         140.9074  137.4047  164.6907 O.3     1  UNL1       -0.4455
     24 C         138.7964  137.6075  163.1899 C.3     1  UNL1        0.0513
     25 C         139.4340  137.6462  164.5472 C.3     1  UNL1        0.2089
     26 C         142.3144  138.9509  161.8836 C.3     1  UNL1        0.1405
     27 N         141.7388  138.6488  160.5318 N.3     1  UNL1       -0.2617
     28 C         140.2995  138.9571  160.2436 C.3     1  UNL1        0.1050
     29 C         139.7239  138.6550  158.8917 C.3     1  UNL1        0.1594
     30 O         140.5877  138.0446  157.8281 O.3     1  UNL1       -0.3530
     31 C         142.0271  137.7363  158.1164 C.3     1  UNL1        0.1367
     32 C         142.6027  138.0383  159.4682 C.3     1  UNL1        0.1028
     33 C         142.8909  137.1258  157.0528 C.3     1  UNL1        0.0726
     34 C         142.7017  135.6889  156.6661 C.2     1  UNL1        0.0528
     35 O         141.6221  135.3091  155.6964 O.co2   1  UNL1       -0.5491
     36 O         143.5920  134.6318  157.2491 O.co2   1  UNL1       -0.5491
@<TRIPOS>UNITY_ATOM_ATTR
35 1
charge -1
@<TRIPOS>BOND
     1    24    25    1
     2    25    23    1
     3    23    21    1
     4    21    22    2
     5    21     1    1
     6     1     2    2
     7     2    26    1
     8    26    27    1
     9    27    28    1
    10    28    29    1
    11    29    30    1
    12    30    31    1
    13    31    33    1
    14    33    34    1
    15    34    35   ar
    16    34    36   ar
    17    31    32    1
    18     2     3    1
    19     3     4    1
    20     4    16    1
    21    16    17   ar
    22    17    18   ar
    23    18    19   ar
    24    19    20   ar
    25     4     5    2
    26     5     6    1
    27     6     8    1
    28     8     9   ar
    29     9    10   ar
    30    10    11   ar
    31    11    12    1
    32    11    13   ar
    33    13    14   ar
    34    14    15    1
    35     6     1    1
    36    14     8   ar
    37    32    27    1
    38    20    16   ar
    39     3     7    1
@<TRIPOS>MOLECULE
*****
 36 39 0 0 0
SMALL
GASTEIGER

@<TRIPOS>ATOM
      1 C         141.7347  143.5473  160.3216 C.2     1  UNL1        0.1397
      2 C         142.5472  143.6223  159.0630 C.2     1  UNL1        0.1355
      3 N         142.0811  144.4732  157.9190 N.pl3   1  UNL1       -0.1998
      4 C         140.8026  145.2491  158.0336 C.2     1  UNL1        0.3442
      5 N         139.9901  145.1741  159.2923 N.2     1  UNL1       -0.0580
      6 C         140.4562  144.3232  160.4363 C.3     1  UNL1        0.2692
      7 H         142.6144  144.5224  157.0929 H       1  UNL1        0.2983
      8 C         139.6437  144.2483  161.6950 C.ar    1  UNL1        0.0371
      9 C         139.9368  145.1800  162.8334 C.ar    1  UNL1        0.0030
     10 C         139.1243  145.1051  164.0921 C.ar    1  UNL1        0.0295
     11 C         138.0187  144.0985  164.2123 C.ar    1  UNL1        0.1406
     12 F         137.2062  144.0236  165.4710 F       1  UNL1       -0.2042
     13 C         137.7256  143.1668  163.0739 C.ar    1  UNL1        0.0362
     14 C         138.5381  143.2417  161.8152 C.ar    1  UNL1        0.0372
     15 BR        138.2450  142.3100  160.6767 Br      1  UNL1       -0.0491
     16 C         140.3365  146.1000  156.8896 C.ar    1  UNL1        0.1931
     17 N         139.2774  147.1603  156.9537 N.ar    1  UNL1       -0.2297
     18 C         139.1340  147.7556  155.5844 C.ar    1  UNL1        0.1067
     19 C         140.1045  147.0632  154.6740 C.ar    1  UNL1        0.0577
     20 S         140.8476  146.0400  155.4807 S.2     1  UNL1       -0.0586
     21 C         142.2008  142.6964  161.4656 C.2     1  UNL1        0.3447
     22 O         143.2762  143.1974  162.3835 O.2     1  UNL1       -0.2450
     23 O         141.5916  141.3445  161.6917 O.3     1  UNL1       -0.4455
     24 C         140.7546  141.3358  164.1513 C.3     1  UNL1        0.0513
     25 C         141.5982  140.7389  163.0640 C.3     1  UNL1        0.2089
     26 C         143.8258  142.8463  158.9483 C.3     1  UNL1        0.1405
     27 N         143.8301  141.5018  158.2833 N.3     1  UNL1       -0.2617
     28 C         144.3946  141.3500  156.9019 C.3     1  UNL1        0.1050
     29 C         144.3989  140.0054  156.2370 C.3     1  UNL1        0.1594
     30 O         143.8386  138.8127  156.9534 O.3     1  UNL1       -0.3530
     31 C         143.2741  138.9644  158.3348 C.3     1  UNL1        0.1367
     32 C         143.2698  140.3089  158.9998 C.3     1  UNL1        0.1028
     33 C         142.7138  137.7716  159.0513 C.3     1  UNL1        0.0726
     34 C         142.7842  137.6942  160.5477 C.2     1  UNL1        0.0528
     35 O         144.1153  137.7251  161.2385 O.co2   1  UNL1       -0.5491
     36 O         141.5235  137.5859  161.3532 O.co2   1  UNL1       -0.5491
@<TRIPOS>UNITY_ATOM_ATTR
35 1
charge -1
@<TRIPOS>BOND
     1    24    25    1
     2    25    23    1
     3    23    21    1
     4    21    22    2
     5    21     1    1
     6     1     2    2
     7     2    26    1
     8    26    27    1
     9    27    28    1
    10    28    29    1
    11    29    30    1
    12    30    31    1
    13    31    33    1
    14    33    34    1
    15    34    35   ar
    16    34    36   ar
    17    31    32    1
    18     2     3    1
    19     3     4    1
    20     4    16    1
    21    16    17   ar
    22    17    18   ar
    23    18    19   ar
    24    19    20   ar
    25     4     5    2
    26     5     6    1
    27     6     8    1
    28     8     9   ar
    29     9    10   ar
    30    10    11   ar
    31    11    12    1
    32    11    13   ar
    33    13    14   ar
    34    14    15    1
    35     6     1    1
    36    14     8   ar
    37    32    27    1
    38    20    16   ar
    39     3     7    1
@<TRIPOS>MOLECULE
*****
 36 39 0 0 0
SMALL
GASTEIGER

@<TRIPOS>ATOM
      1 C         141.9152  140.0019  164.1689 C.2     1  UNL1        0.1397
      2 C         142.1941  140.2747  162.7205 C.2     1  UNL1        0.1355
      3 N         141.7813  141.5814  162.1104 N.pl3   1  UNL1       -0.1998
      4 C         141.0896  142.6152  162.9487 C.2     1  UNL1        0.3442
      5 N         140.8107  142.3424  164.3970 N.2     1  UNL1       -0.0580
      6 C         141.2235  141.0357  165.0071 C.3     1  UNL1        0.2692
      7 H         141.9643  141.7604  161.1598 H       1  UNL1        0.2983
      8 C         140.9446  140.7629  166.4555 C.ar    1  UNL1        0.0371
      9 C         141.9873  141.0667  167.4902 C.ar    1  UNL1        0.0030
     10 C         141.7084  140.7939  168.9386 C.ar    1  UNL1        0.0295
     11 C         140.3869  140.2174  169.3523 C.ar    1  UNL1        0.1406
     12 F         140.1080  139.9446  170.8007 F       1  UNL1       -0.2042
     13 C         139.3442  139.9136  168.3176 C.ar    1  UNL1        0.0362
     14 C         139.6231  140.1864  166.8692 C.ar    1  UNL1        0.0372
     15 BR        138.5804  139.8827  165.8345 Br      1  UNL1       -0.0491
     16 C         140.6768  143.9219  162.3386 C.ar    1  UNL1        0.1931
     17 N         140.7619  144.2822  160.8850 N.ar    1  UNL1       -0.2297
     18 C         140.2441  145.6807  160.7230 C.ar    1  UNL1        0.1067
     19 C         139.8390  146.1846  162.0764 C.ar    1  UNL1        0.0577
     20 S         140.1064  145.0976  163.0749 S.2     1  UNL1       -0.0586
     21 C         142.3281  138.6952  164.7790 C.2     1  UNL1        0.3447
     22 O         143.7061  138.5360  165.3495 O.2     1  UNL1       -0.2450
     23 O         141.3628  137.5478  164.8186 O.3     1  UNL1       -0.4455
     24 C         139.4380  137.5671  163.0736 C.3     1  UNL1        0.0513
     25 C         140.7574  137.0327  163.5465 C.3     1  UNL1        0.2089
     26 C         142.8858  139.2409  161.8822 C.3     1  UNL1        0.1405
     27 N         142.3272  138.8659  160.5416 N.3     1  UNL1       -0.2617
     28 C         143.1401  138.0310  159.5971 C.3     1  UNL1        0.1050
     29 C         142.5814  137.6561  158.2565 C.3     1  UNL1        0.1594
     30 O         141.2098  138.1161  157.8603 O.3     1  UNL1       -0.3530
     31 C         140.3968  138.9511  158.8048 C.3     1  UNL1        0.1367
     32 C         140.9555  139.3260  160.1454 C.3     1  UNL1        0.1028
     33 C         139.0252  139.4111  158.4086 C.3     1  UNL1        0.0726
     34 C         138.2437  140.3108  159.3195 C.2     1  UNL1        0.0528
     35 O         138.4581  141.7947  159.2729 O.co2   1  UNL1       -0.5491
     36 O         137.2477  139.7267  160.2770 O.co2   1  UNL1       -0.5491
@<TRIPOS>UNITY_ATOM_ATTR
35 1
charge -1
@<TRIPOS>BOND
     1    24    25    1
     2    25    23    1
     3    23    21    1
     4    21    22    2
     5    21     1    1
     6     1     2    2
     7     2    26    1
     8    26    27    1
     9    27    28    1
    10    28    29    1
    11    29    30    1
    12    30    31    1
    13    31    33    1
    14    33    34    1
    15    34    35   ar
    16    34    36   ar
    17    31    32    1
    18     2     3    1
    19     3     4    1
    20     4    16    1
    21    16    17   ar
    22    17    18   ar
    23    18    19   ar
    24    19    20   ar
    25     4     5    2
    26     5     6    1
    27     6     8    1
    28     8     9   ar
    29     9    10   ar
    30    10    11   ar
    31    11    12    1
    32    11    13   ar
    33    13    14   ar
    34    14    15    1
    35     6     1    1
    36    14     8   ar
    37    32    27    1
    38    20    16   ar
    39     3     7    1
@<TRIPOS>MOLECULE
*****
 36 39 0 0 0
SMALL
GASTEIGER

@<TRIPOS>ATOM
      1 C         142.9263  140.4111  159.9293 C.2     1  UNL1        0.1397
      2 C         143.3041  139.3986  158.8891 C.2     1  UNL1        0.1355
      3 N         144.2470  139.7741  157.7846 N.pl3   1  UNL1       -0.1998
      4 C         144.8121  141.1620  157.7203 C.2     1  UNL1        0.3442
      5 N         144.4343  142.1745  158.7605 N.2     1  UNL1       -0.0580
      6 C         143.4914  141.7990  159.8650 C.3     1  UNL1        0.2692
      7 H         144.4950  139.1095  157.1019 H       1  UNL1        0.2983
      8 C         143.1135  142.8116  160.9052 C.ar    1  UNL1        0.0371
      9 C         141.9212  143.6964  160.6923 C.ar    1  UNL1        0.0030
     10 C         141.5433  144.7090  161.7325 C.ar    1  UNL1        0.0295
     11 C         142.3579  144.8368  162.9856 C.ar    1  UNL1        0.1406
     12 F         141.9800  145.8493  164.0258 F       1  UNL1       -0.2042
     13 C         143.5502  143.9519  163.1985 C.ar    1  UNL1        0.0362
     14 C         143.9281  142.9394  162.1583 C.ar    1  UNL1        0.0372
     15 BR        145.1205  142.0546  162.3712 Br      1  UNL1       -0.0491
     16 C         145.7550  141.5375  156.6158 C.ar    1  UNL1        0.1931
     17 N         146.8816  142.5228  156.7151 N.ar    1  UNL1       -0.2297
     18 C         147.5598  142.5879  155.3787 C.ar    1  UNL1        0.1067
     19 C         146.8523  141.6427  154.4535 C.ar    1  UNL1        0.0577
     20 S         145.7369  140.9936  155.2180 S.2     1  UNL1       -0.0586
     21 C         141.9834  140.0356  161.0338 C.2     1  UNL1        0.3447
     22 O         140.5028  140.1686  160.8336 O.2     1  UNL1       -0.2450
     23 O         142.5211  139.5271  162.3386 O.3     1  UNL1       -0.4455
     24 C         141.4060  137.4710  163.4696 C.3     1  UNL1        0.0513
     25 C         142.5057  138.0566  162.6341 C.3     1  UNL1        0.2089
     26 C         142.7391  138.0105  158.9534 C.3     1  UNL1        0.1405
     27 N         141.9676  137.4602  157.7907 N.3     1  UNL1       -0.2617
     28 C         140.6941  138.1223  157.3548 C.3     1  UNL1        0.1050
     29 C         139.9226  137.5719  156.1921 C.3     1  UNL1        0.1594
     30 O         140.4245  136.3596  155.4652 O.3     1  UNL1       -0.3530
     31 C         141.6980  135.6976  155.9011 C.3     1  UNL1        0.1367
     32 C         142.4695  136.2479  157.0638 C.3     1  UNL1        0.1028
     33 C         142.1999  134.4853  155.1743 C.3     1  UNL1        0.0726
     34 C         141.8814  133.1143  155.6931 C.2     1  UNL1        0.0528
     35 O         140.9133  132.2389  154.9539 O.co2   1  UNL1       -0.5491
     36 O         142.5308  132.6189  156.9511 O.co2   1  UNL1       -0.5491
@<TRIPOS>UNITY_ATOM_ATTR
35 1
charge -1
@<TRIPOS>BOND
     1    24    25    1
     2    25    23    1
     3    23    21    1
     4    21    22    2
     5    21     1    1
     6     1     2    2
     7     2    26    1
     8    26    27    1
     9    27    28    1
    10    28    29    1
    11    29    30    1
    12    30    31    1
    13    31    33    1
    14    33    34    1
    15    34    35   ar
    16    34    36   ar
    17    31    32    1
    18     2     3    1
    19     3     4    1
    20     4    16    1
    21    16    17   ar
    22    17    18   ar
    23    18    19   ar
    24    19    20   ar
    25     4     5    2
    26     5     6    1
    27     6     8    1
    28     8     9   ar
    29     9    10   ar
    30    10    11   ar
    31    11    12    1
    32    11    13   ar
    33    13    14   ar
    34    14    15    1
    35     6     1    1
    36    14     8   ar
    37    32    27    1
    38    20    16   ar
    39     3     7    1
