@<TRIPOS>MOLECULE
*****
 37 40 0 0 0
SMALL
GASTEIGER

@<TRIPOS>ATOM
      1 C         141.9006  144.6391  158.2568 C.3     1  UNL1        0.0530
      2 C         141.5755  144.0449  159.5952 C.ar    1  UNL1        0.0711
      3 N         142.5587  144.1536  160.7228 N.ar    1  UNL1       -0.2471
      4 C         142.2337  143.5594  162.0612 C.ar    1  UNL1        0.1020
      5 C         143.2169  143.6680  163.1888 C.ar    1  UNL1        0.0518
      6 C         142.8918  143.0738  164.5271 C.ar    1  UNL1        0.1593
      7 F         143.8750  143.1825  165.6548 F       1  UNL1       -0.2025
      8 C         141.5835  142.3710  164.7379 C.ar    1  UNL1        0.1117
      9 N         140.6003  142.2623  163.6104 N.ar    1  UNL1       -0.2402
     10 C         140.9254  142.8565  162.2720 C.ar    1  UNL1        0.1128
     11 C         139.9421  142.7479  161.1443 C.ar    1  UNL1        0.0760
     12 C         140.2672  143.3421  159.8060 C.ar    1  UNL1        0.0857
     13 CL        139.2840  143.2334  158.6783 Cl      1  UNL1       -0.0797
     14 C         141.2585  141.7768  166.0764 C.ar    1  UNL1        0.0582
     15 C         140.6951  142.6422  167.1643 C.ar    1  UNL1        0.1034
     16 N         140.3700  142.0480  168.5027 N.ar    1  UNL1       -0.2268
     17 C         140.6084  140.5884  168.7532 C.ar    1  UNL1        0.1630
     18 N         141.1718  139.7230  167.6651 N.ar    1  UNL1       -0.2268
     19 C         141.4968  140.3172  166.3268 C.ar    1  UNL1        0.1034
     20 C         140.2834  139.9942  170.0915 C.3     1  UNL1        0.1399
     21 C         141.6695  139.4274  170.1765 C.3     1  UNL1        0.0371
     22 C         138.8972  140.5609  170.0065 C.3     1  UNL1        0.0371
     23 O         139.9584  139.4000  171.4299 O.3     1  UNL1       -0.3796
     24 H         140.7334  138.9263  171.7702 H       1  UNL1        0.2108
     25 N         138.6339  142.0451  161.3551 N.pl3   1  UNL1       -0.3286
     26 H         137.8451  142.5525  161.6545 H       1  UNL1        0.1471
     27 C         138.5273  140.5691  161.1098 C.3     1  UNL1        0.0942
     28 C         137.9368  140.0627  159.8272 C.3     1  UNL1        0.0262
     29 C         139.0112  139.5996  162.1470 C.ar    1  UNL1        0.0236
     30 C         138.3441  139.5422  163.4893 C.ar    1  UNL1        0.0098
     31 C         138.8280  138.5727  164.5265 C.ar    1  UNL1        0.0683
     32 C         139.9791  137.6604  164.2214 C.ar    1  UNL1        0.0126
     33 C         140.6461  137.7178  162.8791 C.ar    1  UNL1        0.0301
     34 C         140.1622  138.6874  161.8419 C.ar    1  UNL1        0.1377
     35 F         140.8293  138.7447  160.4996 F       1  UNL1       -0.2044
     36 C         138.1610  138.5153  165.8688 C.1     1  UNL1        0.1004
     37 N         137.4939  138.4580  167.2110 N.1     1  UNL1       -0.1908
@<TRIPOS>BOND
     1     1     2    1
     2     2     3   ar
     3     3     4   ar
     4     4     5   ar
     5     5     6   ar
     6     6     7    1
     7     6     8   ar
     8     8    14    1
     9    14    15   ar
    10    15    16   ar
    11    16    17   ar
    12    17    20    1
    13    20    21    1
    14    20    22    1
    15    20    23    1
    16    17    18   ar
    17    18    19   ar
    18     8     9   ar
    19     9    10   ar
    20    10    11   ar
    21    11    25    1
    22    25    27    1
    23    27    28    1
    24    27    29    1
    25    29    30   ar
    26    30    31   ar
    27    31    36    1
    28    36    37    3
    29    31    32   ar
    30    32    33   ar
    31    33    34   ar
    32    34    35    1
    33    11    12   ar
    34    12    13    1
    35    12     2   ar
    36    10     4   ar
    37    34    29   ar
    38    19    14   ar
    39    23    24    1
    40    25    26    1
@<TRIPOS>MOLECULE
*****
 37 40 0 0 0
SMALL
GASTEIGER

@<TRIPOS>ATOM
      1 C         138.3445  140.7071  157.3142 C.3     1  UNL1        0.0530
      2 C         138.6008  140.5035  158.7781 C.ar    1  UNL1        0.0711
      3 N         138.0548  141.4793  159.7779 N.ar    1  UNL1       -0.2471
      4 C         138.3110  141.2757  161.2419 C.ar    1  UNL1        0.1020
      5 C         137.7650  142.2515  162.2417 C.ar    1  UNL1        0.0518
      6 C         138.0213  142.0479  163.7055 C.ar    1  UNL1        0.1593
      7 F         137.4753  143.0237  164.7054 F       1  UNL1       -0.2025
      8 C         138.8235  140.8684  164.1695 C.ar    1  UNL1        0.1117
      9 N         139.3695  139.8926  163.1697 N.ar    1  UNL1       -0.2402
     10 C         139.1133  140.0963  161.7059 C.ar    1  UNL1        0.1128
     11 C         139.6593  139.1204  160.7060 C.ar    1  UNL1        0.0760
     12 C         139.4030  139.3241  159.2422 C.ar    1  UNL1        0.0857
     13 CL        139.9490  138.3482  158.2423 Cl      1  UNL1       -0.0797
     14 C         139.0798  140.6648  165.6334 C.ar    1  UNL1        0.0582
     15 C         139.9758  141.6107  166.3766 C.ar    1  UNL1        0.1034
     16 N         140.2321  141.4070  167.8405 N.ar    1  UNL1       -0.2268
     17 C         139.5922  140.2575  168.5611 C.ar    1  UNL1        0.1630
     18 N         138.6962  139.3117  167.8178 N.ar    1  UNL1       -0.2268
     19 C         138.4400  139.5153  166.3540 C.ar    1  UNL1        0.1034
     20 C         139.8484  140.0539  170.0250 C.3     1  UNL1        0.1399
     21 C         141.3083  139.8573  169.7421 C.3     1  UNL1        0.0371
     22 C         138.3886  140.2505  170.3078 C.3     1  UNL1        0.0371
     23 O         140.1046  139.8502  171.4888 O.3     1  UNL1       -0.3796
     24 H         141.0499  139.6865  171.6319 H       1  UNL1        0.2108
     25 N         140.4615  137.9410  161.1700 N.pl3   1  UNL1       -0.3286
     26 H         140.0401  137.0536  161.2342 H       1  UNL1        0.1471
     27 C         141.9058  138.1136  161.5362 C.3     1  UNL1        0.0942
     28 C         142.9762  137.8095  160.5302 C.3     1  UNL1        0.0262
     29 C         142.2798  138.5903  162.9083 C.ar    1  UNL1        0.0236
     30 C         142.9994  139.8954  163.0787 C.ar    1  UNL1        0.0098
     31 C         143.3735  140.3721  164.4508 C.ar    1  UNL1        0.0683
     32 C         143.0279  139.5437  165.6527 C.ar    1  UNL1        0.0126
     33 C         142.3084  138.2386  165.4823 C.ar    1  UNL1        0.0301
     34 C         141.9343  137.7619  164.1102 C.ar    1  UNL1        0.1377
     35 F         141.2148  136.4568  163.9398 F       1  UNL1       -0.2044
     36 C         144.0930  141.6771  164.6212 C.1     1  UNL1        0.1004
     37 N         144.8126  142.9822  164.7916 N.1     1  UNL1       -0.1908
@<TRIPOS>BOND
     1     1     2    1
     2     2     3   ar
     3     3     4   ar
     4     4     5   ar
     5     5     6   ar
     6     6     7    1
     7     6     8   ar
     8     8    14    1
     9    14    15   ar
    10    15    16   ar
    11    16    17   ar
    12    17    20    1
    13    20    21    1
    14    20    22    1
    15    20    23    1
    16    17    18   ar
    17    18    19   ar
    18     8     9   ar
    19     9    10   ar
    20    10    11   ar
    21    11    25    1
    22    25    27    1
    23    27    28    1
    24    27    29    1
    25    29    30   ar
    26    30    31   ar
    27    31    36    1
    28    36    37    3
    29    31    32   ar
    30    32    33   ar
    31    33    34   ar
    32    34    35    1
    33    11    12   ar
    34    12    13    1
    35    12     2   ar
    36    10     4   ar
    37    34    29   ar
    38    19    14   ar
    39    23    24    1
    40    25    26    1
@<TRIPOS>MOLECULE
*****
 37 40 0 0 0
SMALL
GASTEIGER

@<TRIPOS>ATOM
      1 C         140.5932  145.6585  158.1835 C.3     1  UNL1        0.0530
      2 C         140.6718  144.9349  159.4952 C.ar    1  UNL1        0.0711
      3 N         139.6123  145.1496  160.5349 N.ar    1  UNL1       -0.2471
      4 C         139.6909  144.4260  161.8465 C.ar    1  UNL1        0.1020
      5 C         138.6313  144.6407  162.8863 C.ar    1  UNL1        0.0518
      6 C         138.7101  143.9171  164.1978 C.ar    1  UNL1        0.1593
      7 F         137.6504  144.1318  165.2377 F       1  UNL1       -0.2025
      8 C         139.8483  142.9788  164.4696 C.ar    1  UNL1        0.1117
      9 N         140.9079  142.7641  163.4299 N.ar    1  UNL1       -0.2402
     10 C         140.8292  143.4877  162.1183 C.ar    1  UNL1        0.1128
     11 C         141.8888  143.2730  161.0785 C.ar    1  UNL1        0.0760
     12 C         141.8101  143.9966  159.7669 C.ar    1  UNL1        0.0857
     13 CL        142.8698  143.7819  158.7271 Cl      1  UNL1       -0.0797
     14 C         139.9270  142.2552  165.7812 C.ar    1  UNL1        0.0582
     15 C         140.7191  142.8388  166.9134 C.ar    1  UNL1        0.1034
     16 N         140.7978  142.1152  168.2250 N.ar    1  UNL1       -0.2268
     17 C         140.0843  140.8080  168.4044 C.ar    1  UNL1        0.1630
     18 N         139.2922  140.2244  167.2721 N.ar    1  UNL1       -0.2268
     19 C         139.2135  140.9480  165.9606 C.ar    1  UNL1        0.1034
     20 C         140.1630  140.0843  169.7159 C.3     1  UNL1        0.1399
     21 C         141.6069  139.7716  169.4568 C.3     1  UNL1        0.0371
     22 C         138.7190  140.3970  169.9750 C.3     1  UNL1        0.0371
     23 O         140.2416  139.3607  171.0274 O.3     1  UNL1       -0.3796
     24 H         141.1389  139.0141  171.1522 H       1  UNL1        0.2108
     25 N         143.0271  142.3347  161.3503 N.pl3   1  UNL1       -0.3286
     26 H         143.9171  142.6919  161.5728 H       1  UNL1        0.1471
     27 C         142.8094  140.8521  161.2830 C.3     1  UNL1        0.0942
     28 C         142.6174  140.1818  159.9548 C.3     1  UNL1        0.0262
     29 C         142.7838  140.0398  162.5437 C.ar    1  UNL1        0.0236
     30 C         141.5161  139.3634  162.9744 C.ar    1  UNL1        0.0098
     31 C         141.4904  138.5511  164.2352 C.ar    1  UNL1        0.0683
     32 C         142.7325  138.4153  165.0653 C.ar    1  UNL1        0.0126
     33 C         144.0001  139.0917  164.6346 C.ar    1  UNL1        0.0301
     34 C         144.0257  139.9040  163.3738 C.ar    1  UNL1        0.1377
     35 F         145.2934  140.5804  162.9431 F       1  UNL1       -0.2044
     36 C         140.2228  137.8747  164.6659 C.1     1  UNL1        0.1004
     37 N         138.9552  137.1983  165.0966 N.1     1  UNL1       -0.1908
@<TRIPOS>BOND
     1     1     2    1
     2     2     3   ar
     3     3     4   ar
     4     4     5   ar
     5     5     6   ar
     6     6     7    1
     7     6     8   ar
     8     8    14    1
     9    14    15   ar
    10    15    16   ar
    11    16    17   ar
    12    17    20    1
    13    20    21    1
    14    20    22    1
    15    20    23    1
    16    17    18   ar
    17    18    19   ar
    18     8     9   ar
    19     9    10   ar
    20    10    11   ar
    21    11    25    1
    22    25    27    1
    23    27    28    1
    24    27    29    1
    25    29    30   ar
    26    30    31   ar
    27    31    36    1
    28    36    37    3
    29    31    32   ar
    30    32    33   ar
    31    33    34   ar
    32    34    35    1
    33    11    12   ar
    34    12    13    1
    35    12     2   ar
    36    10     4   ar
    37    34    29   ar
    38    19    14   ar
    39    23    24    1
    40    25    26    1
@<TRIPOS>MOLECULE
*****
 37 40 0 0 0
SMALL
GASTEIGER

@<TRIPOS>ATOM
      1 C         140.4977  145.4082  158.1784 C.3     1  UNL1        0.0530
      2 C         140.5655  144.6895  159.4933 C.ar    1  UNL1        0.0711
      3 N         139.6280  145.0648  160.6024 N.ar    1  UNL1       -0.2471
      4 C         139.6957  144.3461  161.9173 C.ar    1  UNL1        0.1020
      5 C         138.7582  144.7215  163.0264 C.ar    1  UNL1        0.0518
      6 C         138.8260  144.0027  164.3412 C.ar    1  UNL1        0.1593
      7 F         137.8885  144.3781  165.4504 F       1  UNL1       -0.2025
      8 C         139.8313  142.9086  164.5469 C.ar    1  UNL1        0.1117
      9 N         140.7688  142.5332  163.4378 N.ar    1  UNL1       -0.2402
     10 C         140.7010  143.2520  162.1230 C.ar    1  UNL1        0.1128
     11 C         141.6385  142.8766  161.0138 C.ar    1  UNL1        0.0760
     12 C         141.5708  143.5953  159.6990 C.ar    1  UNL1        0.0857
     13 CL        142.5083  143.2200  158.5899 Cl      1  UNL1       -0.0797
     14 C         139.8990  142.1898  165.8618 C.ar    1  UNL1        0.0582
     15 C         139.4601  140.7587  165.9578 C.ar    1  UNL1        0.1034
     16 N         139.5279  140.0400  167.2727 N.ar    1  UNL1       -0.2268
     17 C         140.0345  140.7524  168.4916 C.ar    1  UNL1        0.1630
     18 N         140.4734  142.1836  168.3956 N.ar    1  UNL1       -0.2268
     19 C         140.4057  142.9023  167.0807 C.ar    1  UNL1        0.1034
     20 C         140.1023  140.0337  169.8064 C.3     1  UNL1        0.1399
     21 C         141.5486  139.7210  169.5609 C.3     1  UNL1        0.0371
     22 C         138.6560  140.3465  170.0519 C.3     1  UNL1        0.0371
     23 O         140.1700  139.3151  171.1213 O.3     1  UNL1       -0.3796
     24 H         141.0664  138.9695  171.2550 H       1  UNL1        0.2108
     25 N         142.6438  141.7825  161.2196 N.pl3   1  UNL1       -0.3286
     26 H         143.5509  142.0002  161.5343 H       1  UNL1        0.1471
     27 C         142.2671  140.3566  160.9457 C.3     1  UNL1        0.0942
     28 C         142.3524  139.8131  159.5502 C.3     1  UNL1        0.0262
     29 C         141.8050  139.4743  162.0672 C.ar    1  UNL1        0.0236
     30 C         142.6527  139.3153  163.2945 C.ar    1  UNL1        0.0098
     31 C         142.1906  138.4330  164.4161 C.ar    1  UNL1        0.0683
     32 C         140.8808  137.7095  164.3103 C.ar    1  UNL1        0.0126
     33 C         140.0332  137.8684  163.0831 C.ar    1  UNL1        0.0301
     34 C         140.4953  138.7508  161.9615 C.ar    1  UNL1        0.1377
     35 F         139.6476  138.9097  160.7342 F       1  UNL1       -0.2044
     36 C         143.0383  138.2740  165.6433 C.1     1  UNL1        0.1004
     37 N         143.8859  138.1151  166.8706 N.1     1  UNL1       -0.1908
@<TRIPOS>BOND
     1     1     2    1
     2     2     3   ar
     3     3     4   ar
     4     4     5   ar
     5     5     6   ar
     6     6     7    1
     7     6     8   ar
     8     8    14    1
     9    14    15   ar
    10    15    16   ar
    11    16    17   ar
    12    17    20    1
    13    20    21    1
    14    20    22    1
    15    20    23    1
    16    17    18   ar
    17    18    19   ar
    18     8     9   ar
    19     9    10   ar
    20    10    11   ar
    21    11    25    1
    22    25    27    1
    23    27    28    1
    24    27    29    1
    25    29    30   ar
    26    30    31   ar
    27    31    36    1
    28    36    37    3
    29    31    32   ar
    30    32    33   ar
    31    33    34   ar
    32    34    35    1
    33    11    12   ar
    34    12    13    1
    35    12     2   ar
    36    10     4   ar
    37    34    29   ar
    38    19    14   ar
    39    23    24    1
    40    25    26    1
@<TRIPOS>MOLECULE
*****
 37 40 0 0 0
SMALL
GASTEIGER

@<TRIPOS>ATOM
      1 C         143.6767  140.3026  157.6055 C.3     1  UNL1        0.0530
      2 C         143.4353  140.2297  159.0842 C.ar    1  UNL1        0.0711
      3 N         144.1750  141.1483  160.0110 N.ar    1  UNL1       -0.2471
      4 C         143.9336  141.0754  161.4897 C.ar    1  UNL1        0.1020
      5 C         144.6733  141.9939  162.4166 C.ar    1  UNL1        0.0518
      6 C         144.4319  141.9210  163.8952 C.ar    1  UNL1        0.1593
      7 F         145.1716  142.8396  164.8221 F       1  UNL1       -0.2025
      8 C         143.4507  140.9296  164.4470 C.ar    1  UNL1        0.1117
      9 N         142.7110  140.0111  163.5201 N.ar    1  UNL1       -0.2402
     10 C         142.9525  140.0840  162.0415 C.ar    1  UNL1        0.1128
     11 C         142.2127  139.1654  161.1146 C.ar    1  UNL1        0.0760
     12 C         142.4542  139.2383  159.6359 C.ar    1  UNL1        0.0857
     13 CL        141.7144  138.3197  158.7090 Cl      1  UNL1       -0.0797
     14 C         143.2093  140.8567  165.9257 C.ar    1  UNL1        0.0582
     15 C         143.0312  142.1169  166.7195 C.ar    1  UNL1        0.1034
     16 N         142.7898  142.0440  168.1982 N.ar    1  UNL1       -0.2268
     17 C         142.7265  140.7109  168.8830 C.ar    1  UNL1        0.1630
     18 N         142.9047  139.4507  168.0891 N.ar    1  UNL1       -0.2268
     19 C         143.1461  139.5236  166.6104 C.ar    1  UNL1        0.1034
     20 C         142.4852  140.6380  170.3616 C.3     1  UNL1        0.1399
     21 C         142.4349  142.1357  170.4273 C.3     1  UNL1        0.0371
     22 C         142.5354  139.1403  170.2960 C.3     1  UNL1        0.0371
     23 O         142.2438  140.5651  171.8402 O.3     1  UNL1       -0.3796
     24 H         142.1611  141.4625  172.1990 H       1  UNL1        0.2108
     25 N         141.2316  138.1740  161.6663 N.pl3   1  UNL1       -0.3286
     26 H         141.5356  137.2759  161.9314 H       1  UNL1        0.1471
     27 C         139.7873  138.5509  161.8143 C.3     1  UNL1        0.0942
     28 C         138.7938  138.1391  160.7686 C.3     1  UNL1        0.0262
     29 C         139.3365  139.3396  163.0079 C.ar    1  UNL1        0.0236
     30 C         138.7900  138.6313  164.2120 C.ar    1  UNL1        0.0098
     31 C         138.3391  139.4200  165.4056 C.ar    1  UNL1        0.0683
     32 C         138.4348  140.9169  165.3951 C.ar    1  UNL1        0.0126
     33 C         138.9812  141.6251  164.1910 C.ar    1  UNL1        0.0301
     34 C         139.4321  140.8364  162.9974 C.ar    1  UNL1        0.1377
     35 F         139.9786  141.5447  161.7933 F       1  UNL1       -0.2044
     36 C         137.7927  138.7118  166.6096 C.1     1  UNL1        0.1004
     37 N         137.2462  138.0036  167.8137 N.1     1  UNL1       -0.1908
@<TRIPOS>BOND
     1     1     2    1
     2     2     3   ar
     3     3     4   ar
     4     4     5   ar
     5     5     6   ar
     6     6     7    1
     7     6     8   ar
     8     8    14    1
     9    14    15   ar
    10    15    16   ar
    11    16    17   ar
    12    17    20    1
    13    20    21    1
    14    20    22    1
    15    20    23    1
    16    17    18   ar
    17    18    19   ar
    18     8     9   ar
    19     9    10   ar
    20    10    11   ar
    21    11    25    1
    22    25    27    1
    23    27    28    1
    24    27    29    1
    25    29    30   ar
    26    30    31   ar
    27    31    36    1
    28    36    37    3
    29    31    32   ar
    30    32    33   ar
    31    33    34   ar
    32    34    35    1
    33    11    12   ar
    34    12    13    1
    35    12     2   ar
    36    10     4   ar
    37    34    29   ar
    38    19    14   ar
    39    23    24    1
    40    25    26    1
@<TRIPOS>MOLECULE
*****
 37 40 0 0 0
SMALL
GASTEIGER

@<TRIPOS>ATOM
      1 C         144.5994  141.3128  157.9107 C.3     1  UNL1        0.0530
      2 C         144.0936  141.3207  159.3229 C.ar    1  UNL1        0.0711
      3 N         144.3867  142.4881  160.2180 N.ar    1  UNL1       -0.2471
      4 C         143.8809  142.4960  161.6301 C.ar    1  UNL1        0.1020
      5 C         144.1741  143.6634  162.5252 C.ar    1  UNL1        0.0518
      6 C         143.6683  143.6713  163.9373 C.ar    1  UNL1        0.1593
      7 F         143.9614  144.8387  164.8325 F       1  UNL1       -0.2025
      8 C         142.8694  142.5118  164.4543 C.ar    1  UNL1        0.1117
      9 N         142.5763  141.3444  163.5592 N.ar    1  UNL1       -0.2402
     10 C         143.0820  141.3365  162.1471 C.ar    1  UNL1        0.1128
     11 C         142.7889  140.1691  161.2520 C.ar    1  UNL1        0.0760
     12 C         143.2947  140.1612  159.8399 C.ar    1  UNL1        0.0857
     13 CL        143.0016  138.9938  158.9447 Cl      1  UNL1       -0.0797
     14 C         142.3636  142.5197  165.8665 C.ar    1  UNL1        0.0582
     15 C         140.9123  142.7803  166.1419 C.ar    1  UNL1        0.1034
     16 N         140.4065  142.7882  167.5541 N.ar    1  UNL1       -0.2268
     17 C         141.3521  142.5356  168.6908 C.ar    1  UNL1        0.1630
     18 N         142.8034  142.2750  168.4154 N.ar    1  UNL1       -0.2268
     19 C         143.3091  142.2671  167.0032 C.ar    1  UNL1        0.1034
     20 C         140.8464  142.5435  170.1030 C.3     1  UNL1        0.1399
     21 C         141.3209  141.1317  170.2808 C.3     1  UNL1        0.0371
     22 C         140.3719  143.9553  169.9251 C.3     1  UNL1        0.0371
     23 O         140.3406  142.5514  171.5151 O.3     1  UNL1       -0.3796
     24 H         140.5209  141.6923  171.9279 H       1  UNL1        0.2108
     25 N         141.9900  139.0096  161.7690 N.pl3   1  UNL1       -0.3286
     26 H         142.4459  138.2510  162.2001 H       1  UNL1        0.1471
     27 C         140.4966  139.0060  161.6291 C.3     1  UNL1        0.0942
     28 C         139.8485  138.2220  160.5266 C.3     1  UNL1        0.0262
     29 C         139.6512  139.7862  162.5916 C.ar    1  UNL1        0.0236
     30 C         139.2805  141.2067  162.2834 C.ar    1  UNL1        0.0098
     31 C         138.4351  141.9870  163.2459 C.ar    1  UNL1        0.0683
     32 C         137.9605  141.3468  164.5167 C.ar    1  UNL1        0.0126
     33 C         138.3312  139.9264  164.8250 C.ar    1  UNL1        0.0301
     34 C         139.1765  139.1461  163.8624 C.ar    1  UNL1        0.1377
     35 F         139.5473  137.7257  164.1707 F       1  UNL1       -0.2044
     36 C         138.0644  143.4073  162.9377 C.1     1  UNL1        0.1004
     37 N         137.6937  144.8277  162.6295 N.1     1  UNL1       -0.1908
@<TRIPOS>BOND
     1     1     2    1
     2     2     3   ar
     3     3     4   ar
     4     4     5   ar
     5     5     6   ar
     6     6     7    1
     7     6     8   ar
     8     8    14    1
     9    14    15   ar
    10    15    16   ar
    11    16    17   ar
    12    17    20    1
    13    20    21    1
    14    20    22    1
    15    20    23    1
    16    17    18   ar
    17    18    19   ar
    18     8     9   ar
    19     9    10   ar
    20    10    11   ar
    21    11    25    1
    22    25    27    1
    23    27    28    1
    24    27    29    1
    25    29    30   ar
    26    30    31   ar
    27    31    36    1
    28    36    37    3
    29    31    32   ar
    30    32    33   ar
    31    33    34   ar
    32    34    35    1
    33    11    12   ar
    34    12    13    1
    35    12     2   ar
    36    10     4   ar
    37    34    29   ar
    38    19    14   ar
    39    23    24    1
    40    25    26    1
@<TRIPOS>MOLECULE
*****
 37 40 0 0 0
SMALL
GASTEIGER

@<TRIPOS>ATOM
      1 C         142.3932  138.4247  157.4770 C.3     1  UNL1        0.0530
      2 C         142.2574  138.6489  158.9539 C.ar    1  UNL1        0.0711
      3 N         143.4635  139.0014  159.7731 N.ar    1  UNL1       -0.2471
      4 C         143.3276  139.2256  161.2501 C.ar    1  UNL1        0.1020
      5 C         144.5337  139.5781  162.0692 C.ar    1  UNL1        0.0518
      6 C         144.3978  139.8022  163.5461 C.ar    1  UNL1        0.1593
      7 F         145.6039  140.1547  164.3654 F       1  UNL1       -0.2025
      8 C         143.0558  139.6738  164.2039 C.ar    1  UNL1        0.1117
      9 N         141.8497  139.3213  163.3847 N.ar    1  UNL1       -0.2402
     10 C         141.9856  139.0972  161.9078 C.ar    1  UNL1        0.1128
     11 C         140.7795  138.7446  161.0886 C.ar    1  UNL1        0.0760
     12 C         140.9154  138.5205  159.6117 C.ar    1  UNL1        0.0857
     13 CL        139.7093  138.1680  158.7924 Cl      1  UNL1       -0.0797
     14 C         142.9200  139.8980  165.6808 C.ar    1  UNL1        0.0582
     15 C         142.5853  141.2631  166.2046 C.ar    1  UNL1        0.1034
     16 N         142.4494  141.4873  167.6816 N.ar    1  UNL1       -0.2268
     17 C         142.6483  140.3462  168.6347 C.ar    1  UNL1        0.1630
     18 N         142.9830  138.9810  168.1109 N.ar    1  UNL1       -0.2268
     19 C         143.1188  138.7569  166.6340 C.ar    1  UNL1        0.1034
     20 C         142.5124  140.5703  170.1116 C.3     1  UNL1        0.1399
     21 C         143.3942  141.7794  170.0092 C.3     1  UNL1        0.0371
     22 C         141.6307  139.3612  170.2140 C.3     1  UNL1        0.0371
     23 O         142.3766  140.7944  171.5885 O.3     1  UNL1       -0.3796
     24 H         142.8849  141.5799  171.8445 H       1  UNL1        0.2108
     25 N         139.4375  138.6163  161.7463 N.pl3   1  UNL1       -0.3286
     26 H         139.2070  137.7952  162.2382 H       1  UNL1        0.1471
     27 C         138.4468  139.7388  161.6545 C.3     1  UNL1        0.0942
     28 C         137.3232  139.6682  160.6633 C.3     1  UNL1        0.0262
     29 C         138.5798  140.9318  162.5539 C.ar    1  UNL1        0.0236
     30 C         138.8226  142.2906  161.9665 C.ar    1  UNL1        0.0098
     31 C         138.9555  143.4836  162.8659 C.ar    1  UNL1        0.0683
     32 C         138.8456  143.3180  164.3527 C.ar    1  UNL1        0.0126
     33 C         138.6028  141.9593  164.9401 C.ar    1  UNL1        0.0301
     34 C         138.4699  140.7662  164.0407 C.ar    1  UNL1        0.1377
     35 F         138.2271  139.4075  164.6281 F       1  UNL1       -0.2044
     36 C         139.1983  144.8423  162.2786 C.1     1  UNL1        0.1004
     37 N         139.4411  146.2010  161.6912 N.1     1  UNL1       -0.1908
@<TRIPOS>BOND
     1     1     2    1
     2     2     3   ar
     3     3     4   ar
     4     4     5   ar
     5     5     6   ar
     6     6     7    1
     7     6     8   ar
     8     8    14    1
     9    14    15   ar
    10    15    16   ar
    11    16    17   ar
    12    17    20    1
    13    20    21    1
    14    20    22    1
    15    20    23    1
    16    17    18   ar
    17    18    19   ar
    18     8     9   ar
    19     9    10   ar
    20    10    11   ar
    21    11    25    1
    22    25    27    1
    23    27    28    1
    24    27    29    1
    25    29    30   ar
    26    30    31   ar
    27    31    36    1
    28    36    37    3
    29    31    32   ar
    30    32    33   ar
    31    33    34   ar
    32    34    35    1
    33    11    12   ar
    34    12    13    1
    35    12     2   ar
    36    10     4   ar
    37    34    29   ar
    38    19    14   ar
    39    23    24    1
    40    25    26    1
@<TRIPOS>MOLECULE
*****
 37 40 0 0 0
SMALL
GASTEIGER

@<TRIPOS>ATOM
      1 C         137.7373  140.4035  158.2331 C.3     1  UNL1        0.0530
      2 C         138.2301  140.5478  159.6425 C.ar    1  UNL1        0.0711
      3 N         138.1463  139.3871  160.5889 N.ar    1  UNL1       -0.2471
      4 C         138.6391  139.5314  161.9983 C.ar    1  UNL1        0.1020
      5 C         138.5553  138.3707  162.9447 C.ar    1  UNL1        0.0518
      6 C         139.0481  138.5150  164.3540 C.ar    1  UNL1        0.1593
      7 F         138.9644  137.3543  165.3005 F       1  UNL1       -0.2025
      8 C         139.6248  139.8201  164.8169 C.ar    1  UNL1        0.1117
      9 N         139.7086  140.9808  163.8706 N.ar    1  UNL1       -0.2402
     10 C         139.2158  140.8364  162.4612 C.ar    1  UNL1        0.1128
     11 C         139.2995  141.9972  161.5148 C.ar    1  UNL1        0.0760
     12 C         138.8067  141.8528  160.1054 C.ar    1  UNL1        0.0857
     13 CL        138.8905  143.0136  159.1590 Cl      1  UNL1       -0.0797
     14 C         140.1176  139.9644  166.2263 C.ar    1  UNL1        0.0582
     15 C         141.5445  140.3467  166.4865 C.ar    1  UNL1        0.1034
     16 N         142.0374  140.4910  167.8959 N.ar    1  UNL1       -0.2268
     17 C         141.1032  140.2530  169.0451 C.ar    1  UNL1        0.1630
     18 N         139.6762  139.8706  168.7849 N.ar    1  UNL1       -0.2268
     19 C         139.1835  139.7263  167.3756 C.ar    1  UNL1        0.1034
     20 C         141.5960  140.3973  170.4545 C.3     1  UNL1        0.1399
     21 C         140.5974  141.4911  170.6916 C.3     1  UNL1        0.0371
     22 C         142.5945  139.3034  170.2173 C.3     1  UNL1        0.0371
     23 O         142.0887  140.5416  171.8638 O.3     1  UNL1       -0.3796
     24 H         141.5861  141.2396  172.3122 H       1  UNL1        0.2108
     25 N         139.8762  143.3022  161.9777 N.pl3   1  UNL1       -0.3286
     26 H         139.3048  143.9557  162.4422 H       1  UNL1        0.1471
     27 C         141.3233  143.6117  161.7329 C.3     1  UNL1        0.0942
     28 C         141.7635  144.1317  160.3965 C.3     1  UNL1        0.0262
     29 C         142.3304  143.4011  162.8245 C.ar    1  UNL1        0.0236
     30 C         142.9665  142.0552  163.0086 C.ar    1  UNL1        0.0098
     31 C         143.9735  141.8446  164.1002 C.ar    1  UNL1        0.0683
     32 C         144.3444  142.9800  165.0077 C.ar    1  UNL1        0.0126
     33 C         143.7083  144.3259  164.8235 C.ar    1  UNL1        0.0301
     34 C         142.7013  144.5364  163.7319 C.ar    1  UNL1        0.1377
     35 F         142.0651  145.8824  163.5478 F       1  UNL1       -0.2044
     36 C         144.6097  140.4988  164.2844 C.1     1  UNL1        0.1004
     37 N         145.2458  139.1529  164.4685 N.1     1  UNL1       -0.1908
@<TRIPOS>BOND
     1     1     2    1
     2     2     3   ar
     3     3     4   ar
     4     4     5   ar
     5     5     6   ar
     6     6     7    1
     7     6     8   ar
     8     8    14    1
     9    14    15   ar
    10    15    16   ar
    11    16    17   ar
    12    17    20    1
    13    20    21    1
    14    20    22    1
    15    20    23    1
    16    17    18   ar
    17    18    19   ar
    18     8     9   ar
    19     9    10   ar
    20    10    11   ar
    21    11    25    1
    22    25    27    1
    23    27    28    1
    24    27    29    1
    25    29    30   ar
    26    30    31   ar
    27    31    36    1
    28    36    37    3
    29    31    32   ar
    30    32    33   ar
    31    33    34   ar
    32    34    35    1
    33    11    12   ar
    34    12    13    1
    35    12     2   ar
    36    10     4   ar
    37    34    29   ar
    38    19    14   ar
    39    23    24    1
    40    25    26    1
@<TRIPOS>MOLECULE
*****
 37 40 0 0 0
SMALL
GASTEIGER

@<TRIPOS>ATOM
      1 C         143.0146  142.3979  157.5860 C.3     1  UNL1        0.0530
      2 C         142.8911  142.4380  159.0804 C.ar    1  UNL1        0.0711
      3 N         143.3288  141.2611  159.9010 N.ar    1  UNL1       -0.2471
      4 C         143.2053  141.3011  161.3954 C.ar    1  UNL1        0.1020
      5 C         143.6430  140.1242  162.2159 C.ar    1  UNL1        0.0518
      6 C         143.5195  140.1643  163.7102 C.ar    1  UNL1        0.1593
      7 F         143.9572  138.9874  164.5309 F       1  UNL1       -0.2025
      8 C         142.9584  141.3813  164.3841 C.ar    1  UNL1        0.1117
      9 N         142.5207  142.5582  163.5635 N.ar    1  UNL1       -0.2402
     10 C         142.6442  142.5181  162.0692 C.ar    1  UNL1        0.1128
     11 C         142.2065  143.6951  161.2486 C.ar    1  UNL1        0.0760
     12 C         142.3299  143.6550  159.7543 C.ar    1  UNL1        0.0857
     13 CL        141.8923  144.8319  158.9336 Cl      1  UNL1       -0.0797
     14 C         142.8349  141.4214  165.8785 C.ar    1  UNL1        0.0582
     15 C         142.0328  140.3746  166.5931 C.ar    1  UNL1        0.1034
     16 N         141.9093  140.4146  168.0875 N.ar    1  UNL1       -0.2268
     17 C         142.5880  141.5015  168.8673 C.ar    1  UNL1        0.1630
     18 N         143.3902  142.5484  168.1526 N.ar    1  UNL1       -0.2268
     19 C         143.5136  142.5083  166.6582 C.ar    1  UNL1        0.1034
     20 C         142.4646  141.5416  170.3616 C.3     1  UNL1        0.1399
     21 C         142.2760  143.0287  170.3061 C.3     1  UNL1        0.0371
     22 C         142.6532  140.0546  170.4171 C.3     1  UNL1        0.0371
     23 O         142.3412  141.5817  171.8559 O.3     1  UNL1       -0.3796
     24 H         142.1996  142.4970  172.1442 H       1  UNL1        0.2108
     25 N         141.6453  144.9121  161.9224 N.pl3   1  UNL1       -0.3286
     26 H         142.2512  145.5733  162.3285 H       1  UNL1        0.1471
     27 C         140.1611  145.1216  161.9774 C.3     1  UNL1        0.0942
     28 C         139.5707  146.4261  161.5304 C.3     1  UNL1        0.0262
     29 C         139.2671  144.0267  162.4795 C.ar    1  UNL1        0.0236
     30 C         138.8893  142.8923  161.5737 C.ar    1  UNL1        0.0098
     31 C         137.9954  141.7974  162.0758 C.ar    1  UNL1        0.0683
     32 C         137.4793  141.8370  163.4837 C.ar    1  UNL1        0.0126
     33 C         137.8571  142.9713  164.3894 C.ar    1  UNL1        0.0301
     34 C         138.7510  144.0662  163.8874 C.ar    1  UNL1        0.1377
     35 F         139.1289  145.2006  164.7932 F       1  UNL1       -0.2044
     36 C         137.6176  140.6631  161.1701 C.1     1  UNL1        0.1004
     37 N         137.2397  139.5287  160.2643 N.1     1  UNL1       -0.1908
@<TRIPOS>BOND
     1     1     2    1
     2     2     3   ar
     3     3     4   ar
     4     4     5   ar
     5     5     6   ar
     6     6     7    1
     7     6     8   ar
     8     8    14    1
     9    14    15   ar
    10    15    16   ar
    11    16    17   ar
    12    17    20    1
    13    20    21    1
    14    20    22    1
    15    20    23    1
    16    17    18   ar
    17    18    19   ar
    18     8     9   ar
    19     9    10   ar
    20    10    11   ar
    21    11    25    1
    22    25    27    1
    23    27    28    1
    24    27    29    1
    25    29    30   ar
    26    30    31   ar
    27    31    36    1
    28    36    37    3
    29    31    32   ar
    30    32    33   ar
    31    33    34   ar
    32    34    35    1
    33    11    12   ar
    34    12    13    1
    35    12     2   ar
    36    10     4   ar
    37    34    29   ar
    38    19    14   ar
    39    23    24    1
    40    25    26    1
