@<TRIPOS>MOLECULE
*****
 26 29 0 0 0
SMALL
GASTEIGER

@<TRIPOS>ATOM
      1 O         143.3927  138.5357  168.0544 O.2     1  UNL1       -0.2699
      2 C         142.6723  139.7269  167.4957 C.2     1  UNL1        0.2494
      3 N         142.8629  140.1125  166.0586 N.am    1  UNL1       -0.2698
      4 C         143.7738  139.3069  165.1804 C.3     1  UNL1        0.1021
      5 C         143.9643  139.6925  163.7434 C.3     1  UNL1        0.0874
      6 C         143.2440  140.8837  163.1847 C.ar    1  UNL1        0.1415
      7 O         143.2346  141.5006  161.8173 O.2     1  UNL1       -0.4380
      8 C         142.3179  142.6873  161.8506 C.ar    1  UNL1        0.2471
      9 N         141.7607  142.8040  163.2384 N.ar    1  UNL1       -0.2100
     10 C         142.3331  141.6893  164.0629 C.ar    1  UNL1        0.1124
     11 C         142.1426  141.3036  165.4998 C.3     1  UNL1        0.1425
     12 C         141.7614  140.5324  168.3739 C.ar    1  UNL1        0.0567
     13 C         142.1636  141.9109  168.8076 C.ar    1  UNL1        0.0342
     14 C         141.2526  142.7164  169.6858 C.ar    1  UNL1        0.1411
     15 F         141.6547  144.0949  170.1195 F       1  UNL1       -0.2041
     16 C         139.9396  142.1435  170.1304 C.ar    1  UNL1        0.0410
     17 C         139.5374  140.7650  169.6967 C.ar    1  UNL1        0.0601
     18 CL        138.2244  140.1921  170.1412 Cl      1  UNL1       -0.0822
     19 C         140.4483  139.9595  168.8185 C.ar    1  UNL1        0.0161
     20 C         142.0119  143.5978  160.6983 C.ar    1  UNL1        0.1348
     21 C         140.8705  144.5665  160.7904 C.ar    1  UNL1        0.0262
     22 C         140.5645  145.4769  159.6383 C.ar    1  UNL1        0.0329
     23 C         141.4001  145.4185  158.3939 C.ar    1  UNL1        0.1592
     24 F         141.0941  146.3289  157.2416 F       1  UNL1       -0.2025
     25 C         142.5415  144.4497  158.3018 C.ar    1  UNL1        0.1285
     26 N         142.8475  143.5393  159.4540 N.ar    1  UNL1       -0.2368
@<TRIPOS>BOND
     1     1     2    2
     2     2    12    1
     3    12    13   ar
     4    13    14   ar
     5    14    15    1
     6    14    16   ar
     7    16    17   ar
     8    17    18    1
     9    17    19   ar
    10     2     3   am
    11     3     4    1
    12     4     5    1
    13     5     6    1
    14     6     7   ar
    15     7     8   ar
    16     8    20    1
    17    20    21   ar
    18    21    22   ar
    19    22    23   ar
    20    23    24    1
    21    23    25   ar
    22    25    26   ar
    23     8     9   ar
    24     9    10   ar
    25    10    11    1
    26    19    12   ar
    27    11     3    1
    28    10     6   ar
    29    26    20   ar
@<TRIPOS>MOLECULE
*****
 26 29 0 0 0
SMALL
GASTEIGER

@<TRIPOS>ATOM
      1 O         137.9857  139.9124  170.2009 O.2     1  UNL1       -0.2699
      2 C         139.0476  140.2650  169.2018 C.2     1  UNL1        0.2494
      3 N         139.0444  139.6233  167.8459 N.am    1  UNL1       -0.2698
      4 C         137.9794  138.6291  167.4891 C.3     1  UNL1        0.1021
      5 C         137.9762  137.9876  166.1333 C.3     1  UNL1        0.0874
      6 C         139.0381  138.3402  165.1342 C.ar    1  UNL1        0.1415
      7 O         139.2903  137.8742  163.7309 O.2     1  UNL1       -0.4380
      8 C         140.5111  138.5805  163.2204 C.ar    1  UNL1        0.2471
      9 N         141.0135  139.4829  164.3082 N.ar    1  UNL1       -0.2100
     10 C         140.1031  139.3344  165.4910 C.ar    1  UNL1        0.1124
     11 C         140.1062  139.9760  166.8468 C.3     1  UNL1        0.1425
     12 C         140.1126  141.2592  169.5585 C.ar    1  UNL1        0.0567
     13 C         139.7599  142.7070  169.7299 C.ar    1  UNL1        0.0342
     14 C         140.8250  143.7013  170.0867 C.ar    1  UNL1        0.1411
     15 F         140.4723  145.1491  170.2581 F       1  UNL1       -0.2041
     16 C         142.2426  143.2476  170.2721 C.ar    1  UNL1        0.0410
     17 C         142.5953  141.7998  170.1007 C.ar    1  UNL1        0.0601
     18 CL        144.0129  141.3461  170.2860 Cl      1  UNL1       -0.0822
     19 C         141.5303  140.8056  169.7439 C.ar    1  UNL1        0.0161
     20 C         141.1224  138.4136  161.8607 C.ar    1  UNL1        0.1348
     21 C         142.5404  137.9426  161.7286 C.ar    1  UNL1        0.0262
     22 C         143.1517  137.7758  160.3690 C.ar    1  UNL1        0.0329
     23 C         142.3450  138.0799  159.1416 C.ar    1  UNL1        0.1592
     24 F         142.9563  137.9131  157.7819 F       1  UNL1       -0.2025
     25 C         140.9270  138.5509  159.2737 C.ar    1  UNL1        0.1285
     26 N         140.3157  138.7178  160.6333 N.ar    1  UNL1       -0.2368
@<TRIPOS>BOND
     1     1     2    2
     2     2    12    1
     3    12    13   ar
     4    13    14   ar
     5    14    15    1
     6    14    16   ar
     7    16    17   ar
     8    17    18    1
     9    17    19   ar
    10     2     3   am
    11     3     4    1
    12     4     5    1
    13     5     6    1
    14     6     7   ar
    15     7     8   ar
    16     8    20    1
    17    20    21   ar
    18    21    22   ar
    19    22    23   ar
    20    23    24    1
    21    23    25   ar
    22    25    26   ar
    23     8     9   ar
    24     9    10   ar
    25    10    11    1
    26    19    12   ar
    27    11     3    1
    28    10     6   ar
    29    26    20   ar
@<TRIPOS>MOLECULE
*****
 26 29 0 0 0
SMALL
GASTEIGER

@<TRIPOS>ATOM
      1 O         143.4049  138.4822  167.9970 O.2     1  UNL1       -0.2699
      2 C         142.6585  139.6523  167.4279 C.2     1  UNL1        0.2494
      3 N         142.8754  140.0576  166.0000 N.am    1  UNL1       -0.2698
      4 C         143.8385  139.2928  165.1413 C.3     1  UNL1        0.1021
      5 C         144.0553  139.6981  163.7135 C.3     1  UNL1        0.0874
      6 C         143.3090  140.8682  163.1444 C.ar    1  UNL1        0.1415
      7 O         143.3158  141.4968  161.7824 O.2     1  UNL1       -0.4380
      8 C         142.3569  142.6501  161.7994 C.ar    1  UNL1        0.2471
      9 N         141.7574  142.7342  163.1719 N.ar    1  UNL1       -0.2100
     10 C         142.3458  141.6329  164.0030 C.ar    1  UNL1        0.1124
     11 C         142.1290  141.2276  165.4309 C.3     1  UNL1        0.1425
     12 C         141.6954  140.4170  168.2866 C.ar    1  UNL1        0.0567
     13 C         140.3615  139.8228  168.6298 C.ar    1  UNL1        0.0342
     14 C         139.3983  140.5877  169.4885 C.ar    1  UNL1        0.1411
     15 F         138.0645  139.9935  169.8317 F       1  UNL1       -0.2041
     16 C         139.7690  141.9466  170.0040 C.ar    1  UNL1        0.0410
     17 C         141.1028  142.5408  169.6608 C.ar    1  UNL1        0.0601
     18 CL        141.4735  143.8998  170.1763 Cl      1  UNL1       -0.0822
     19 C         142.0660  141.7761  168.8021 C.ar    1  UNL1        0.0161
     20 C         142.0511  143.5597  160.6465 C.ar    1  UNL1        0.1348
     21 C         140.8934  144.5101  160.7275 C.ar    1  UNL1        0.0262
     22 C         140.5876  145.4196  159.5746 C.ar    1  UNL1        0.0329
     23 C         141.4395  145.3788  158.3407 C.ar    1  UNL1        0.1592
     24 F         141.1337  146.2884  157.1878 F       1  UNL1       -0.2025
     25 C         142.5972  144.4284  158.2597 C.ar    1  UNL1        0.1285
     26 N         142.9030  143.5189  159.4126 N.ar    1  UNL1       -0.2368
@<TRIPOS>BOND
     1     1     2    2
     2     2    12    1
     3    12    13   ar
     4    13    14   ar
     5    14    15    1
     6    14    16   ar
     7    16    17   ar
     8    17    18    1
     9    17    19   ar
    10     2     3   am
    11     3     4    1
    12     4     5    1
    13     5     6    1
    14     6     7   ar
    15     7     8   ar
    16     8    20    1
    17    20    21   ar
    18    21    22   ar
    19    22    23   ar
    20    23    24    1
    21    23    25   ar
    22    25    26   ar
    23     8     9   ar
    24     9    10   ar
    25    10    11    1
    26    19    12   ar
    27    11     3    1
    28    10     6   ar
    29    26    20   ar
@<TRIPOS>MOLECULE
*****
 26 29 0 0 0
SMALL
GASTEIGER

@<TRIPOS>ATOM
      1 O         142.8312  140.9058  167.3224 O.2     1  UNL1       -0.2699
      2 C         142.1077  140.8228  166.0111 C.2     1  UNL1        0.2494
      3 N         142.3464  141.8617  164.9557 N.am    1  UNL1       -0.2698
      4 C         143.3085  142.9836  165.2117 C.3     1  UNL1        0.1021
      5 C         143.5472  144.0225  164.1564 C.3     1  UNL1        0.0874
      6 C         142.8236  143.9394  162.8450 C.ar    1  UNL1        0.1415
      7 O         142.8548  144.8110  161.6246 O.2     1  UNL1       -0.4380
      8 C         141.9118  144.2278  160.6143 C.ar    1  UNL1        0.2471
      9 N         141.2980  142.9957  161.2104 N.ar    1  UNL1       -0.2100
     10 C         141.8615  142.8175  162.5890 C.ar    1  UNL1        0.1124
     11 C         141.6229  141.7787  163.6443 C.3     1  UNL1        0.1425
     12 C         141.1456  139.7009  165.7550 C.ar    1  UNL1        0.0567
     13 C         141.5165  138.5953  164.8117 C.ar    1  UNL1        0.0342
     14 C         140.5543  137.4733  164.5557 C.ar    1  UNL1        0.1411
     15 F         140.9252  136.3677  163.6123 F       1  UNL1       -0.2041
     16 C         139.2212  137.4571  165.2430 C.ar    1  UNL1        0.0410
     17 C         138.8502  138.5627  166.1864 C.ar    1  UNL1        0.0601
     18 CL        137.5171  138.5464  166.8738 Cl      1  UNL1       -0.0822
     19 C         139.8124  139.6846  166.4424 C.ar    1  UNL1        0.0161
     20 C         141.6318  144.7796  159.2479 C.ar    1  UNL1        0.1348
     21 C         140.3496  145.5116  158.9829 C.ar    1  UNL1        0.0262
     22 C         140.0696  146.0635  157.6165 C.ar    1  UNL1        0.0329
     23 C         141.0718  145.8833  156.5151 C.ar    1  UNL1        0.1592
     24 F         140.7919  146.4352  155.1487 F       1  UNL1       -0.2025
     25 C         142.3540  145.1514  156.7801 C.ar    1  UNL1        0.1285
     26 N         142.6340  144.5995  158.1465 N.ar    1  UNL1       -0.2368
@<TRIPOS>BOND
     1     1     2    2
     2     2    12    1
     3    12    13   ar
     4    13    14   ar
     5    14    15    1
     6    14    16   ar
     7    16    17   ar
     8    17    18    1
     9    17    19   ar
    10     2     3   am
    11     3     4    1
    12     4     5    1
    13     5     6    1
    14     6     7   ar
    15     7     8   ar
    16     8    20    1
    17    20    21   ar
    18    21    22   ar
    19    22    23   ar
    20    23    24    1
    21    23    25   ar
    22    25    26   ar
    23     8     9   ar
    24     9    10   ar
    25    10    11    1
    26    19    12   ar
    27    11     3    1
    28    10     6   ar
    29    26    20   ar
@<TRIPOS>MOLECULE
*****
 26 29 0 0 0
SMALL
GASTEIGER

@<TRIPOS>ATOM
      1 O         138.0486  139.0597  168.4536 O.2     1  UNL1       -0.2699
      2 C         139.2487  139.7338  167.8575 C.2     1  UNL1        0.2494
      3 N         139.5025  139.6458  166.3817 N.am    1  UNL1       -0.2698
      4 C         138.5561  138.8839  165.5021 C.3     1  UNL1        0.1021
      5 C         138.8099  138.7959  164.0263 C.3     1  UNL1        0.0874
      6 C         140.0101  139.4700  163.4302 C.ar    1  UNL1        0.1415
      7 O         140.5159  139.5563  162.0207 O.2     1  UNL1       -0.4380
      8 C         141.7749  140.3717  162.0292 C.ar    1  UNL1        0.2471
      9 N         142.0472  140.7892  163.4440 N.ar    1  UNL1       -0.2100
     10 C         140.9564  140.2319  164.3098 C.ar    1  UNL1        0.1124
     11 C         140.7026  140.3199  165.7856 C.3     1  UNL1        0.1425
     12 C         140.1951  140.4957  168.7371 C.ar    1  UNL1        0.0567
     13 C         141.3407  139.7873  169.3972 C.ar    1  UNL1        0.0342
     14 C         142.2870  140.5494  170.2769 C.ar    1  UNL1        0.1411
     15 F         143.4326  139.8409  170.9370 F       1  UNL1       -0.2041
     16 C         142.0878  142.0198  170.4964 C.ar    1  UNL1        0.0410
     17 C         140.9422  142.7282  169.8363 C.ar    1  UNL1        0.0601
     18 CL        140.7430  144.1986  170.0557 Cl      1  UNL1       -0.0822
     19 C         139.9959  141.9662  168.9566 C.ar    1  UNL1        0.0161
     20 C         142.6144  140.7101  160.8330 C.ar    1  UNL1        0.1348
     21 C         142.7395  139.7312  159.7034 C.ar    1  UNL1        0.0262
     22 C         143.5789  140.0695  158.5072 C.ar    1  UNL1        0.0329
     23 C         144.2932  141.3868  158.4407 C.ar    1  UNL1        0.1592
     24 F         145.1327  141.7252  157.2445 F       1  UNL1       -0.2025
     25 C         144.1681  142.3657  159.5703 C.ar    1  UNL1        0.1285
     26 N         143.3287  142.0273  160.7665 N.ar    1  UNL1       -0.2368
@<TRIPOS>BOND
     1     1     2    2
     2     2    12    1
     3    12    13   ar
     4    13    14   ar
     5    14    15    1
     6    14    16   ar
     7    16    17   ar
     8    17    18    1
     9    17    19   ar
    10     2     3   am
    11     3     4    1
    12     4     5    1
    13     5     6    1
    14     6     7   ar
    15     7     8   ar
    16     8    20    1
    17    20    21   ar
    18    21    22   ar
    19    22    23   ar
    20    23    24    1
    21    23    25   ar
    22    25    26   ar
    23     8     9   ar
    24     9    10   ar
    25    10    11    1
    26    19    12   ar
    27    11     3    1
    28    10     6   ar
    29    26    20   ar
@<TRIPOS>MOLECULE
*****
 26 29 0 0 0
SMALL
GASTEIGER

@<TRIPOS>ATOM
      1 O         138.0791  139.1496  168.4604 O.2     1  UNL1       -0.2699
      2 C         139.2871  139.8034  167.8578 C.2     1  UNL1        0.2494
      3 N         139.5240  139.7233  166.3788 N.am    1  UNL1       -0.2698
      4 C         138.5529  138.9894  165.5023 C.3     1  UNL1        0.1021
      5 C         138.7898  138.9093  164.0234 C.3     1  UNL1        0.0874
      6 C         139.9978  139.5631  163.4208 C.ar    1  UNL1        0.1415
      7 O         140.4911  139.6514  162.0069 O.2     1  UNL1       -0.4380
      8 C         141.7671  140.4399  162.0096 C.ar    1  UNL1        0.2471
      9 N         142.0625  140.8390  163.4251 N.ar    1  UNL1       -0.2100
     10 C         140.9690  140.2971  164.2972 C.ar    1  UNL1        0.1124
     11 C         140.7321  140.3772  165.7762 C.3     1  UNL1        0.1425
     12 C         140.2583  140.5374  168.7342 C.ar    1  UNL1        0.0567
     13 C         140.1292  142.0204  168.9189 C.ar    1  UNL1        0.0342
     14 C         141.1005  142.7544  169.7954 C.ar    1  UNL1        0.1411
     15 F         140.9714  144.2373  169.9801 F       1  UNL1       -0.2041
     16 C         142.2006  142.0053  170.4871 C.ar    1  UNL1        0.0410
     17 C         142.3297  140.5224  170.3024 C.ar    1  UNL1        0.0601
     18 CL        143.4298  139.7733  170.9942 Cl      1  UNL1       -0.0822
     19 C         141.3585  139.7884  169.4260 C.ar    1  UNL1        0.0161
     20 C         142.6014  140.7712  160.8078 C.ar    1  UNL1        0.1348
     21 C         143.2819  142.1045  160.7116 C.ar    1  UNL1        0.0262
     22 C         144.1162  142.4358  159.5099 C.ar    1  UNL1        0.0329
     23 C         144.2699  141.4338  158.4043 C.ar    1  UNL1        0.1592
     24 F         145.1042  141.7651  157.2025 F       1  UNL1       -0.2025
     25 C         143.5895  140.1005  158.5005 C.ar    1  UNL1        0.1285
     26 N         142.7552  139.7692  159.7022 N.ar    1  UNL1       -0.2368
@<TRIPOS>BOND
     1     1     2    2
     2     2    12    1
     3    12    13   ar
     4    13    14   ar
     5    14    15    1
     6    14    16   ar
     7    16    17   ar
     8    17    18    1
     9    17    19   ar
    10     2     3   am
    11     3     4    1
    12     4     5    1
    13     5     6    1
    14     6     7   ar
    15     7     8   ar
    16     8    20    1
    17    20    21   ar
    18    21    22   ar
    19    22    23   ar
    20    23    24    1
    21    23    25   ar
    22    25    26   ar
    23     8     9   ar
    24     9    10   ar
    25    10    11    1
    26    19    12   ar
    27    11     3    1
    28    10     6   ar
    29    26    20   ar
@<TRIPOS>MOLECULE
*****
 26 29 0 0 0
SMALL
GASTEIGER

@<TRIPOS>ATOM
      1 O         138.2603  138.9212  168.1116 O.2     1  UNL1       -0.2699
      2 C         139.1783  139.9733  167.5633 C.2     1  UNL1        0.2494
      3 N         139.1538  140.3013  166.0998 N.am    1  UNL1       -0.2698
      4 C         138.2115  139.5773  165.1846 C.3     1  UNL1        0.1021
      5 C         138.1870  139.9053  163.7211 C.3     1  UNL1        0.0874
      6 C         139.1050  140.9573  163.1728 C.ar    1  UNL1        0.1415
      7 O         139.3044  141.4913  161.7853 O.2     1  UNL1       -0.4380
      8 C         140.3700  142.5454  161.8431 C.ar    1  UNL1        0.2471
      9 N         140.8292  142.6628  163.2662 N.ar    1  UNL1       -0.2100
     10 C         140.0474  141.6813  164.0881 C.ar    1  UNL1        0.1124
     11 C         140.0718  141.3533  165.5515 C.3     1  UNL1        0.1425
     12 C         140.1207  140.6973  168.4785 C.ar    1  UNL1        0.0567
     13 C         141.3159  139.9858  169.0399 C.ar    1  UNL1        0.0342
     14 C         142.2583  140.7099  169.9552 C.ar    1  UNL1        0.1411
     15 F         143.4536  139.9984  170.5165 F       1  UNL1       -0.2041
     16 C         142.0055  142.1454  170.3090 C.ar    1  UNL1        0.0410
     17 C         140.8102  142.8569  169.7476 C.ar    1  UNL1        0.0601
     18 CL        140.5574  144.2925  170.1015 Cl      1  UNL1       -0.0822
     19 C         139.8678  142.1329  168.8324 C.ar    1  UNL1        0.0161
     20 C         140.8859  143.3422  160.6816 C.ar    1  UNL1        0.1348
     21 C         140.1561  144.5738  160.2337 C.ar    1  UNL1        0.0262
     22 C         140.6720  145.3706  159.0723 C.ar    1  UNL1        0.0329
     23 C         141.9176  144.9358  158.3587 C.ar    1  UNL1        0.1592
     24 F         142.4335  145.7326  157.1972 F       1  UNL1       -0.2025
     25 C         142.6474  143.7042  158.8065 C.ar    1  UNL1        0.1285
     26 N         142.1316  142.9074  159.9680 N.ar    1  UNL1       -0.2368
@<TRIPOS>BOND
     1     1     2    2
     2     2    12    1
     3    12    13   ar
     4    13    14   ar
     5    14    15    1
     6    14    16   ar
     7    16    17   ar
     8    17    18    1
     9    17    19   ar
    10     2     3   am
    11     3     4    1
    12     4     5    1
    13     5     6    1
    14     6     7   ar
    15     7     8   ar
    16     8    20    1
    17    20    21   ar
    18    21    22   ar
    19    22    23   ar
    20    23    24    1
    21    23    25   ar
    22    25    26   ar
    23     8     9   ar
    24     9    10   ar
    25    10    11    1
    26    19    12   ar
    27    11     3    1
    28    10     6   ar
    29    26    20   ar
@<TRIPOS>MOLECULE
*****
 26 29 0 0 0
SMALL
GASTEIGER

@<TRIPOS>ATOM
      1 O         138.4802  144.9457  165.4611 O.2     1  UNL1       -0.2699
      2 C         139.3867  143.9465  164.8055 C.2     1  UNL1        0.2494
      3 N         139.9702  144.2365  163.4543 N.am    1  UNL1       -0.2698
      4 C         139.6472  145.5257  162.7589 C.3     1  UNL1        0.1021
      5 C         140.2306  145.8156  161.4078 C.3     1  UNL1        0.0874
      6 C         141.1372  144.8164  160.7522 C.ar    1  UNL1        0.1415
      7 O         141.8555  144.8254  159.4353 O.2     1  UNL1       -0.4380
      8 C         142.6225  143.5417  159.3170 C.ar    1  UNL1        0.2471
      9 N         142.3782  142.7395  160.5607 N.ar    1  UNL1       -0.2100
     10 C         141.4602  143.5273  161.4477 C.ar    1  UNL1        0.1124
     11 C         140.8767  143.2373  162.7987 C.3     1  UNL1        0.1425
     12 C         139.7098  142.6574  165.5010 C.ar    1  UNL1        0.0567
     13 C         140.9156  142.5657  166.3884 C.ar    1  UNL1        0.0342
     14 C         141.2387  141.2765  167.0839 C.ar    1  UNL1        0.1411
     15 F         142.4445  141.1847  167.9713 F       1  UNL1       -0.2041
     16 C         140.3559  140.0791  166.8919 C.ar    1  UNL1        0.0410
     17 C         139.1500  140.1708  166.0045 C.ar    1  UNL1        0.0601
     18 CL        138.2672  138.9734  165.8126 Cl      1  UNL1       -0.0822
     19 C         138.8270  141.4599  165.3090 C.ar    1  UNL1        0.0161
     20 C         143.4828  143.1322  158.1584 C.ar    1  UNL1        0.1348
     21 C         144.8332  142.5272  158.4040 C.ar    1  UNL1        0.0262
     22 C         145.6935  142.1177  157.2455 C.ar    1  UNL1        0.0329
     23 C         145.2033  142.3132  155.8414 C.ar    1  UNL1        0.1592
     24 F         146.0636  141.9036  154.6828 F       1  UNL1       -0.2025
     25 C         143.8529  142.9182  155.5959 C.ar    1  UNL1        0.1285
     26 N         142.9926  143.3277  156.7543 N.ar    1  UNL1       -0.2368
@<TRIPOS>BOND
     1     1     2    2
     2     2    12    1
     3    12    13   ar
     4    13    14   ar
     5    14    15    1
     6    14    16   ar
     7    16    17   ar
     8    17    18    1
     9    17    19   ar
    10     2     3   am
    11     3     4    1
    12     4     5    1
    13     5     6    1
    14     6     7   ar
    15     7     8   ar
    16     8    20    1
    17    20    21   ar
    18    21    22   ar
    19    22    23   ar
    20    23    24    1
    21    23    25   ar
    22    25    26   ar
    23     8     9   ar
    24     9    10   ar
    25    10    11    1
    26    19    12   ar
    27    11     3    1
    28    10     6   ar
    29    26    20   ar
@<TRIPOS>MOLECULE
*****
 26 29 0 0 0
SMALL
GASTEIGER

@<TRIPOS>ATOM
      1 O         138.4561  144.9068  165.4197 O.2     1  UNL1       -0.2699
      2 C         139.3356  143.8934  164.7491 C.2     1  UNL1        0.2494
      3 N         139.9497  144.1990  163.4151 N.am    1  UNL1       -0.2698
      4 C         139.6843  145.5179  162.7517 C.3     1  UNL1        0.1021
      5 C         140.2983  145.8234  161.4177 C.3     1  UNL1        0.0874
      6 C         141.1778  144.8101  160.7471 C.ar    1  UNL1        0.1415
      7 O         141.9159  144.8290  159.4413 O.2     1  UNL1       -0.4380
      8 C         142.6374  143.5219  159.2978 C.ar    1  UNL1        0.2471
      9 N         142.3453  142.6950  160.5148 N.ar    1  UNL1       -0.2100
     10 C         141.4432  143.4912  161.4105 C.ar    1  UNL1        0.1124
     11 C         140.8291  143.1857  162.7445 C.3     1  UNL1        0.1425
     12 C         139.6010  142.5746  165.4125 C.ar    1  UNL1        0.0567
     13 C         138.7188  141.3971  165.1205 C.ar    1  UNL1        0.0342
     14 C         138.9842  140.0782  165.7839 C.ar    1  UNL1        0.1411
     15 F         138.1020  138.9008  165.4919 F       1  UNL1       -0.2041
     16 C         140.1319  139.9368  166.7393 C.ar    1  UNL1        0.0410
     17 C         141.0141  141.1142  167.0313 C.ar    1  UNL1        0.0601
     18 CL        142.1618  140.9728  167.9867 Cl      1  UNL1       -0.0822
     19 C         140.7487  142.4331  166.3679 C.ar    1  UNL1        0.0161
     20 C         143.4998  143.1132  158.1404 C.ar    1  UNL1        0.1348
     21 C         142.9967  143.2747  156.7365 C.ar    1  UNL1        0.0262
     22 C         143.8590  142.8661  155.5792 C.ar    1  UNL1        0.0329
     23 C         145.2242  142.2959  155.8257 C.ar    1  UNL1        0.1592
     24 F         146.0866  141.8872  154.6683 F       1  UNL1       -0.2025
     25 C         145.7273  142.1344  157.2296 C.ar    1  UNL1        0.1285
     26 N         144.8651  142.5430  158.3869 N.ar    1  UNL1       -0.2368
@<TRIPOS>BOND
     1     1     2    2
     2     2    12    1
     3    12    13   ar
     4    13    14   ar
     5    14    15    1
     6    14    16   ar
     7    16    17   ar
     8    17    18    1
     9    17    19   ar
    10     2     3   am
    11     3     4    1
    12     4     5    1
    13     5     6    1
    14     6     7   ar
    15     7     8   ar
    16     8    20    1
    17    20    21   ar
    18    21    22   ar
    19    22    23   ar
    20    23    24    1
    21    23    25   ar
    22    25    26   ar
    23     8     9   ar
    24     9    10   ar
    25    10    11    1
    26    19    12   ar
    27    11     3    1
    28    10     6   ar
    29    26    20   ar
