@<TRIPOS>MOLECULE
*****
 27 30 0 0 0
SMALL
GASTEIGER

@<TRIPOS>ATOM
      1 O         142.2663  138.4086  163.9426 O.2     1  UNL1       -0.2522
      2 C         141.1754  138.6953  162.9538 C.2     1  UNL1        0.3078
      3 N         139.8495  139.2116  163.4285 N.am    1  UNL1       -0.2681
      4 N         141.4104  138.4656  161.4902 N.am    1  UNL1       -0.2611
      5 C         142.7363  137.9492  161.0155 C.3     1  UNL1        0.1123
      6 C         142.9713  137.7196  159.5520 C.3     1  UNL1        0.0940
      7 N         141.8804  138.0062  158.5631 N.3     1  UNL1       -0.2697
      8 C         140.5545  138.5225  159.0379 C.3     1  UNL1        0.0940
      9 C         140.3195  138.7522  160.5014 C.3     1  UNL1        0.1123
     10 H         139.1335  139.3997  162.7795 H       1  UNL1        0.1564
     11 C         139.6145  139.4413  164.8921 C.ar    1  UNL1        0.0516
     12 C         138.5142  138.7071  165.5994 C.ar    1  UNL1        0.0156
     13 C         138.2792  138.9368  167.0629 C.ar    1  UNL1        0.0127
     14 C         139.1445  139.9007  167.8192 C.ar    1  UNL1        0.0578
     15 CL        138.9095  140.1304  169.2828 Cl      1  UNL1       -0.0822
     16 C         140.2448  140.6350  167.1120 C.ar    1  UNL1        0.0127
     17 C         140.4798  140.4052  165.6485 C.ar    1  UNL1        0.0156
     18 C         142.1154  137.7765  157.0995 C.3     1  UNL1        0.0735
     19 C         142.1096  136.3813  156.5489 C.3     1  UNL1        0.0320
     20 C         141.0891  135.9838  155.5239 C.3     1  UNL1        0.0042
     21 C         141.0833  134.5885  154.9732 C.3     1  UNL1        0.0174
     22 C         142.0979  133.5907  155.4476 C.3     1  UNL1        0.0720
     23 N         143.1184  133.9882  156.4726 N.3     1  UNL1       -0.2739
     24 C         143.1242  135.3836  157.0233 C.3     1  UNL1        0.0734
     25 C         144.1330  132.9905  156.9470 C.3     1  UNL1        0.0576
     26 C         144.8921  131.7129  156.7438 C.3     1  UNL1        0.0173
     27 C         145.1313  132.5401  157.9719 C.3     1  UNL1        0.0173
@<TRIPOS>BOND
     1     1     2    2
     2     2     3   am
     3     3    11    1
     4    11    12   ar
     5    12    13   ar
     6    13    14   ar
     7    14    15    1
     8    14    16   ar
     9    16    17   ar
    10     2     4   am
    11     4     5    1
    12     5     6    1
    13     6     7    1
    14     7    18    1
    15    19    18    1
    16    19    20    1
    17    20    21    1
    18    21    22    1
    19    22    23    1
    20    23    25    1
    21    25    26    1
    22    26    27    1
    23    23    24    1
    24     7     8    1
    25     8     9    1
    26    17    11   ar
    27     9     4    1
    28    24    19    1
    29    27    25    1
    30     3    10    1
@<TRIPOS>MOLECULE
*****
 27 30 0 0 0
SMALL
GASTEIGER

@<TRIPOS>ATOM
      1 O         142.2378  146.0582  158.1037 O.2     1  UNL1       -0.2522
      2 C         141.3799  144.8311  158.1950 C.2     1  UNL1        0.3078
      3 N         141.3384  143.8584  157.0539 N.am    1  UNL1       -0.2681
      4 N         140.5636  144.5767  159.4275 N.am    1  UNL1       -0.2611
      5 C         140.6051  145.5494  160.5686 C.3     1  UNL1        0.1123
      6 C         139.7887  145.2950  161.8009 C.3     1  UNL1        0.0940
      7 N         138.9309  144.0679  161.8922 N.3     1  UNL1       -0.2697
      8 C         138.8894  143.0952  160.7511 C.3     1  UNL1        0.0940
      9 C         139.7057  143.3496  159.5188 C.3     1  UNL1        0.1123
     10 H         140.7754  143.0530  157.1138 H       1  UNL1        0.1564
     11 C         142.1548  144.1128  155.8214 C.ar    1  UNL1        0.0516
     12 C         143.4295  143.3549  155.5965 C.ar    1  UNL1        0.0156
     13 C         144.2458  143.6093  154.3641 C.ar    1  UNL1        0.0127
     14 C         143.7874  144.6217  153.3566 C.ar    1  UNL1        0.0578
     15 CL        144.6038  144.8761  152.1241 Cl      1  UNL1       -0.0822
     16 C         142.5127  145.3796  153.5816 C.ar    1  UNL1        0.0127
     17 C         141.6964  145.1252  154.8140 C.ar    1  UNL1        0.0156
     18 C         138.1145  143.8135  163.1247 C.3     1  UNL1        0.0735
     19 C         138.7133  143.0678  164.2802 C.3     1  UNL1        0.0320
     20 C         139.7026  143.7475  165.1798 C.3     1  UNL1        0.0042
     21 C         140.3014  143.0018  166.3354 C.3     1  UNL1        0.0174
     22 C         139.9109  141.5762  166.5914 C.3     1  UNL1        0.0720
     23 N         138.9216  140.8965  165.6918 N.3     1  UNL1       -0.2739
     24 C         138.3228  141.6423  164.5362 C.3     1  UNL1        0.0734
     25 C         138.5311  139.4710  165.9477 C.3     1  UNL1        0.0576
     26 C         137.8552  138.4434  166.8062 C.3     1  UNL1        0.0173
     27 C         138.5307  138.0297  165.5325 C.3     1  UNL1        0.0173
@<TRIPOS>BOND
     1     1     2    2
     2     2     3   am
     3     3    11    1
     4    11    12   ar
     5    12    13   ar
     6    13    14   ar
     7    14    15    1
     8    14    16   ar
     9    16    17   ar
    10     2     4   am
    11     4     5    1
    12     5     6    1
    13     6     7    1
    14     7    18    1
    15    19    18    1
    16    19    20    1
    17    20    21    1
    18    21    22    1
    19    22    23    1
    20    23    25    1
    21    25    26    1
    22    26    27    1
    23    23    24    1
    24     7     8    1
    25     8     9    1
    26    17    11   ar
    27     9     4    1
    28    24    19    1
    29    27    25    1
    30     3    10    1
@<TRIPOS>MOLECULE
*****
 27 30 0 0 0
SMALL
GASTEIGER

@<TRIPOS>ATOM
      1 O         143.1787  139.8616  156.4612 O.2     1  UNL1       -0.2522
      2 C         143.2212  139.2636  157.8361 C.2     1  UNL1        0.3078
      3 N         142.9591  137.7989  158.0254 N.am    1  UNL1       -0.2681
      4 N         143.5260  140.1304  159.0219 N.am    1  UNL1       -0.2611
      5 C         143.7881  141.5951  158.8326 C.3     1  UNL1        0.1123
      6 C         144.0928  142.4618  160.0183 C.3     1  UNL1        0.0940
      7 N         144.1354  141.8638  161.3933 N.3     1  UNL1       -0.2697
      8 C         143.8732  140.3991  161.5826 C.3     1  UNL1        0.0940
      9 C         143.5685  139.5324  160.3969 C.3     1  UNL1        0.1123
     10 H         142.9870  137.4064  158.9279 H       1  UNL1        0.1564
     11 C         142.6544  136.9321  156.8397 C.ar    1  UNL1        0.0516
     12 C         141.2375  136.7666  156.3760 C.ar    1  UNL1        0.0156
     13 C         140.9328  135.8998  155.1904 C.ar    1  UNL1        0.0127
     14 C         142.0450  135.1986  154.4684 C.ar    1  UNL1        0.0578
     15 CL        141.7403  134.3318  153.2826 Cl      1  UNL1       -0.0822
     16 C         143.4619  135.3641  154.9320 C.ar    1  UNL1        0.0127
     17 C         143.7666  136.2309  156.1177 C.ar    1  UNL1        0.0156
     18 C         144.4401  142.7306  162.5790 C.3     1  UNL1        0.0735
     19 C         143.5523  142.6879  163.7872 C.3     1  UNL1        0.0320
     20 C         144.0555  142.0888  165.0670 C.3     1  UNL1        0.0042
     21 C         143.1676  142.0461  166.2752 C.3     1  UNL1        0.0174
     22 C         141.7764  142.6025  166.2037 C.3     1  UNL1        0.0720
     23 N         141.2732  143.2016  164.9239 N.3     1  UNL1       -0.2739
     24 C         142.1611  143.2443  163.7157 C.3     1  UNL1        0.0734
     25 C         139.8821  143.7580  164.8523 C.3     1  UNL1        0.0576
     26 C         138.8853  144.8157  165.2234 C.3     1  UNL1        0.0173
     27 C         138.4692  143.6639  164.3573 C.3     1  UNL1        0.0173
@<TRIPOS>BOND
     1     1     2    2
     2     2     3   am
     3     3    11    1
     4    11    12   ar
     5    12    13   ar
     6    13    14   ar
     7    14    15    1
     8    14    16   ar
     9    16    17   ar
    10     2     4   am
    11     4     5    1
    12     5     6    1
    13     6     7    1
    14     7    18    1
    15    19    18    1
    16    19    20    1
    17    20    21    1
    18    21    22    1
    19    22    23    1
    20    23    25    1
    21    25    26    1
    22    26    27    1
    23    23    24    1
    24     7     8    1
    25     8     9    1
    26    17    11   ar
    27     9     4    1
    28    24    19    1
    29    27    25    1
    30     3    10    1
@<TRIPOS>MOLECULE
*****
 27 30 0 0 0
SMALL
GASTEIGER

@<TRIPOS>ATOM
      1 O         141.9086  138.6023  161.7764 O.2     1  UNL1       -0.2522
      2 C         140.7972  138.4369  160.7827 C.2     1  UNL1        0.3078
      3 N         139.3709  138.4298  161.2470 N.am    1  UNL1       -0.2681
      4 N         141.1122  138.2787  159.3246 N.am    1  UNL1       -0.2611
      5 C         142.5384  138.2859  158.8603 C.3     1  UNL1        0.1123
      6 C         142.8533  138.1277  157.4023 C.3     1  UNL1        0.0940
      7 N         141.7419  137.9623  156.4086 N.3     1  UNL1       -0.2697
      8 C         140.3156  137.9551  156.8729 C.3     1  UNL1        0.0940
      9 C         140.0008  138.1133  158.3309 C.3     1  UNL1        0.1123
     10 H         138.6415  138.3212  160.5948 H       1  UNL1        0.1564
     11 C         139.0560  138.5880  162.7050 C.ar    1  UNL1        0.0516
     12 C         138.5503  139.9010  163.2249 C.ar    1  UNL1        0.0156
     13 C         138.2354  140.0591  164.6829 C.ar    1  UNL1        0.0127
     14 C         138.4262  138.9043  165.6210 C.ar    1  UNL1        0.0578
     15 CL        138.1113  139.0625  167.0791 Cl      1  UNL1       -0.0822
     16 C         138.9319  137.5913  165.1011 C.ar    1  UNL1        0.0127
     17 C         139.2468  137.4332  163.6431 C.ar    1  UNL1        0.0156
     18 C         142.0568  137.8041  154.9506 C.3     1  UNL1        0.0735
     19 C         142.0777  136.4379  154.3317 C.3     1  UNL1        0.0320
     20 C         141.5852  136.2425  152.9284 C.3     1  UNL1        0.0042
     21 C         141.6061  134.8763  152.3096 C.3     1  UNL1        0.0174
     22 C         142.1195  133.7054  153.0941 C.3     1  UNL1        0.0720
     23 N         142.6120  133.9007  154.4974 N.3     1  UNL1       -0.2739
     24 C         142.5911  135.2670  155.1162 C.3     1  UNL1        0.0734
     25 C         143.1253  132.7298  155.2819 C.3     1  UNL1        0.0576
     26 C         143.0831  131.8703  156.5104 C.3     1  UNL1        0.0173
     27 C         144.0568  131.5613  155.4121 C.3     1  UNL1        0.0173
@<TRIPOS>BOND
     1     1     2    2
     2     2     3   am
     3     3    11    1
     4    11    12   ar
     5    12    13   ar
     6    13    14   ar
     7    14    15    1
     8    14    16   ar
     9    16    17   ar
    10     2     4   am
    11     4     5    1
    12     5     6    1
    13     6     7    1
    14     7    18    1
    15    19    18    1
    16    19    20    1
    17    20    21    1
    18    21    22    1
    19    22    23    1
    20    23    25    1
    21    25    26    1
    22    26    27    1
    23    23    24    1
    24     7     8    1
    25     8     9    1
    26    17    11   ar
    27     9     4    1
    28    24    19    1
    29    27    25    1
    30     3    10    1
@<TRIPOS>MOLECULE
*****
 27 30 0 0 0
SMALL
GASTEIGER

@<TRIPOS>ATOM
      1 O         139.0060  144.2007  165.0942 O.2     1  UNL1       -0.2522
      2 C         140.0213  143.4865  164.2521 C.2     1  UNL1        0.3078
      3 N         140.7111  142.2653  164.7837 N.am    1  UNL1       -0.2681
      4 N         140.3467  143.9936  162.8784 N.am    1  UNL1       -0.2611
      5 C         139.6568  145.2148  162.3468 C.3     1  UNL1        0.1123
      6 C         139.9823  145.7218  160.9731 C.3     1  UNL1        0.0940
      7 N         140.9975  145.0076  160.1311 N.3     1  UNL1       -0.2697
      8 C         141.6874  143.7864  160.6627 C.3     1  UNL1        0.0940
      9 C         141.3620  143.2794  162.0363 C.3     1  UNL1        0.1123
     10 H         141.3775  141.7965  164.2310 H       1  UNL1        0.1564
     11 C         140.3857  141.7582  166.1574 C.ar    1  UNL1        0.0516
     12 C         139.6613  140.4553  166.3239 C.ar    1  UNL1        0.0156
     13 C         139.3359  139.9483  167.6975 C.ar    1  UNL1        0.0127
     14 C         139.7349  140.7442  168.9048 C.ar    1  UNL1        0.0578
     15 CL        139.4095  140.2371  170.2785 Cl      1  UNL1       -0.0822
     16 C         140.4594  142.0470  168.7383 C.ar    1  UNL1        0.0127
     17 C         140.7848  142.5540  167.3647 C.ar    1  UNL1        0.0156
     18 C         141.3230  145.5147  158.7573 C.3     1  UNL1        0.0735
     19 C         140.3237  145.3697  157.6481 C.3     1  UNL1        0.0320
     20 C         140.0082  146.5404  156.7651 C.3     1  UNL1        0.0042
     21 C         139.0089  146.3954  155.6559 C.3     1  UNL1        0.0174
     22 C         138.3251  145.0795  155.4297 C.3     1  UNL1        0.0720
     23 N         138.6406  143.9088  156.3127 N.3     1  UNL1       -0.2739
     24 C         139.6400  144.0539  157.4220 C.3     1  UNL1        0.0734
     25 C         137.9569  142.5930  156.0866 C.3     1  UNL1        0.0576
     26 C         136.7752  141.6915  156.2884 C.3     1  UNL1        0.0173
     27 C         137.9544  141.2155  155.4930 C.3     1  UNL1        0.0173
@<TRIPOS>BOND
     1     1     2    2
     2     2     3   am
     3     3    11    1
     4    11    12   ar
     5    12    13   ar
     6    13    14   ar
     7    14    15    1
     8    14    16   ar
     9    16    17   ar
    10     2     4   am
    11     4     5    1
    12     5     6    1
    13     6     7    1
    14     7    18    1
    15    19    18    1
    16    19    20    1
    17    20    21    1
    18    21    22    1
    19    22    23    1
    20    23    25    1
    21    25    26    1
    22    26    27    1
    23    23    24    1
    24     7     8    1
    25     8     9    1
    26    17    11   ar
    27     9     4    1
    28    24    19    1
    29    27    25    1
    30     3    10    1
@<TRIPOS>MOLECULE
*****
 27 30 0 0 0
SMALL
GASTEIGER

@<TRIPOS>ATOM
      1 O         143.5237  136.5230  156.7039 O.2     1  UNL1       -0.2522
      2 C         142.0396  136.7281  156.7785 C.2     1  UNL1        0.3078
      3 N         141.1143  135.7677  156.0920 N.am    1  UNL1       -0.2681
      4 N         141.4809  137.8937  157.5396 N.am    1  UNL1       -0.2611
      5 C         142.4062  138.8542  158.2261 C.3     1  UNL1        0.1123
      6 C         141.8474  140.0197  158.9871 C.3     1  UNL1        0.0940
      7 N         140.3634  140.2248  159.0617 N.3     1  UNL1       -0.2697
      8 C         139.4381  139.2644  158.3752 C.3     1  UNL1        0.0940
      9 C         139.9968  138.0988  157.6142 C.3     1  UNL1        0.1123
     10 H         140.1403  135.9023  156.1409 H       1  UNL1        0.1564
     11 C         141.6730  134.6020  155.3309 C.ar    1  UNL1        0.0516
     12 C         142.2496  133.4309  156.0696 C.ar    1  UNL1        0.0156
     13 C         142.8083  132.2653  155.3085 C.ar    1  UNL1        0.0127
     14 C         142.7904  132.2710  153.8086 C.ar    1  UNL1        0.0578
     15 CL        143.3491  131.1053  153.0475 Cl      1  UNL1       -0.0822
     16 C         142.2138  133.4421  153.0699 C.ar    1  UNL1        0.0127
     17 C         141.6551  134.6077  153.8310 C.ar    1  UNL1        0.0156
     18 C         139.8047  141.3904  159.8228 C.3     1  UNL1        0.0735
     19 C         139.1416  141.1710  161.1503 C.3     1  UNL1        0.0320
     20 C         138.0999  142.1345  161.6367 C.3     1  UNL1        0.0042
     21 C         137.4369  141.9150  162.9642 C.3     1  UNL1        0.0174
     22 C         137.8154  140.7321  163.8052 C.3     1  UNL1        0.0720
     23 N         138.8571  139.7686  163.3188 N.3     1  UNL1       -0.2739
     24 C         139.5202  139.9881  161.9912 C.3     1  UNL1        0.0734
     25 C         139.2357  138.5856  164.1597 C.3     1  UNL1        0.0576
     26 C         138.8500  137.4886  165.1072 C.3     1  UNL1        0.0173
     27 C         140.2772  137.6337  164.6689 C.3     1  UNL1        0.0173
@<TRIPOS>BOND
     1     1     2    2
     2     2     3   am
     3     3    11    1
     4    11    12   ar
     5    12    13   ar
     6    13    14   ar
     7    14    15    1
     8    14    16   ar
     9    16    17   ar
    10     2     4   am
    11     4     5    1
    12     5     6    1
    13     6     7    1
    14     7    18    1
    15    19    18    1
    16    19    20    1
    17    20    21    1
    18    21    22    1
    19    22    23    1
    20    23    25    1
    21    25    26    1
    22    26    27    1
    23    23    24    1
    24     7     8    1
    25     8     9    1
    26    17    11   ar
    27     9     4    1
    28    24    19    1
    29    27    25    1
    30     3    10    1
@<TRIPOS>MOLECULE
*****
 27 30 0 0 0
SMALL
GASTEIGER

@<TRIPOS>ATOM
      1 O         140.7775  138.3712  158.6759 O.2     1  UNL1       -0.2522
      2 C         142.2166  138.5878  159.0392 C.2     1  UNL1        0.3078
      3 N         143.3025  138.0585  158.1500 N.am    1  UNL1       -0.2681
      4 N         142.5698  139.3339  160.2917 N.am    1  UNL1       -0.2611
      5 C         141.4839  139.8632  161.1808 C.3     1  UNL1        0.1123
      6 C         141.8372  140.6092  162.4333 C.3     1  UNL1        0.0940
      7 N         143.2763  140.8259  162.7966 N.3     1  UNL1       -0.2697
      8 C         144.3622  140.2966  161.9074 C.3     1  UNL1        0.0940
      9 C         144.0089  139.5506  160.6550 C.3     1  UNL1        0.1123
     10 H         144.2470  138.2007  158.3885 H       1  UNL1        0.1564
     11 C         142.9493  137.3125  156.8975 C.ar    1  UNL1        0.0516
     12 C         142.7823  135.8223  156.9340 C.ar    1  UNL1        0.0156
     13 C         142.4291  135.0763  155.6815 C.ar    1  UNL1        0.0127
     14 C         142.2429  135.8205  154.3925 C.ar    1  UNL1        0.0578
     15 CL        141.8897  135.0745  153.1400 Cl      1  UNL1       -0.0822
     16 C         142.4099  137.3107  154.3560 C.ar    1  UNL1        0.0127
     17 C         142.7631  138.0567  155.6085 C.ar    1  UNL1        0.0156
     18 C         143.6295  141.5719  164.0491 C.3     1  UNL1        0.0735
     19 C         143.1787  141.0542  165.3828 C.3     1  UNL1        0.0320
     20 C         143.2973  139.5928  165.6991 C.3     1  UNL1        0.0042
     21 C         142.8465  139.0751  167.0328 C.3     1  UNL1        0.0174
     22 C         142.2771  140.0189  168.0502 C.3     1  UNL1        0.0720
     23 N         142.1584  141.4804  167.7339 N.3     1  UNL1       -0.2739
     24 C         142.6093  141.9980  166.4001 C.3     1  UNL1        0.0734
     25 C         141.5890  142.4242  168.7512 C.3     1  UNL1        0.0576
     26 C         141.7378  143.2121  170.0188 C.3     1  UNL1        0.0173
     27 C         140.4539  143.2709  169.2456 C.3     1  UNL1        0.0173
@<TRIPOS>BOND
     1     1     2    2
     2     2     3   am
     3     3    11    1
     4    11    12   ar
     5    12    13   ar
     6    13    14   ar
     7    14    15    1
     8    14    16   ar
     9    16    17   ar
    10     2     4   am
    11     4     5    1
    12     5     6    1
    13     6     7    1
    14     7    18    1
    15    19    18    1
    16    19    20    1
    17    20    21    1
    18    21    22    1
    19    22    23    1
    20    23    25    1
    21    25    26    1
    22    26    27    1
    23    23    24    1
    24     7     8    1
    25     8     9    1
    26    17    11   ar
    27     9     4    1
    28    24    19    1
    29    27    25    1
    30     3    10    1
@<TRIPOS>MOLECULE
*****
 27 30 0 0 0
SMALL
GASTEIGER

@<TRIPOS>ATOM
      1 O         142.4699  145.7899  157.8228 O.2     1  UNL1       -0.2522
      2 C         141.1997  145.2771  158.4339 C.2     1  UNL1        0.3078
      3 N         139.8752  145.6594  157.8426 N.am    1  UNL1       -0.2681
      4 N         141.2539  144.3819  159.6364 N.am    1  UNL1       -0.2611
      5 C         142.5784  143.9996  160.2276 C.3     1  UNL1        0.1123
      6 C         142.6326  143.1045  161.4300 C.3     1  UNL1        0.0940
      7 N         141.3623  142.5917  162.0411 N.3     1  UNL1       -0.2697
      8 C         140.0379  142.9740  161.4499 C.3     1  UNL1        0.0940
      9 C         139.9837  143.8691  160.2475 C.3     1  UNL1        0.1123
     10 H         139.0415  145.3228  158.2438 H       1  UNL1        0.1564
     11 C         139.8210  146.5545  156.6402 C.ar    1  UNL1        0.0516
     12 C         140.6115  146.2104  155.4127 C.ar    1  UNL1        0.0156
     13 C         140.5572  147.1056  154.2104 C.ar    1  UNL1        0.0127
     14 C         139.7124  148.3448  154.2355 C.ar    1  UNL1        0.0578
     15 CL        139.6582  149.2400  153.0330 Cl      1  UNL1       -0.0822
     16 C         138.9220  148.6889  155.4629 C.ar    1  UNL1        0.0127
     17 C         138.9762  147.7938  156.6653 C.ar    1  UNL1        0.0156
     18 C         141.4166  141.6965  163.2436 C.3     1  UNL1        0.0735
     19 C         140.6887  140.3850  163.2357 C.3     1  UNL1        0.0320
     20 C         140.7321  139.5104  162.0179 C.3     1  UNL1        0.0042
     21 C         140.0042  138.1990  162.0100 C.3     1  UNL1        0.0174
     22 C         139.2328  137.7620  163.2200 C.3     1  UNL1        0.0720
     23 N         139.1893  138.6366  164.4379 N.3     1  UNL1       -0.2739
     24 C         139.9173  139.9482  164.4457 C.3     1  UNL1        0.0734
     25 C         138.4180  138.1998  165.6479 C.3     1  UNL1        0.0576
     26 C         137.7694  137.1124  166.4522 C.3     1  UNL1        0.0173
     27 C         137.7305  138.5305  166.9394 C.3     1  UNL1        0.0173
@<TRIPOS>BOND
     1     1     2    2
     2     2     3   am
     3     3    11    1
     4    11    12   ar
     5    12    13   ar
     6    13    14   ar
     7    14    15    1
     8    14    16   ar
     9    16    17   ar
    10     2     4   am
    11     4     5    1
    12     5     6    1
    13     6     7    1
    14     7    18    1
    15    19    18    1
    16    19    20    1
    17    20    21    1
    18    21    22    1
    19    22    23    1
    20    23    25    1
    21    25    26    1
    22    26    27    1
    23    23    24    1
    24     7     8    1
    25     8     9    1
    26    17    11   ar
    27     9     4    1
    28    24    19    1
    29    27    25    1
    30     3    10    1
@<TRIPOS>MOLECULE
*****
 27 30 0 0 0
SMALL
GASTEIGER

@<TRIPOS>ATOM
      1 O         142.2163  145.1199  159.4099 O.2     1  UNL1       -0.2522
      2 C         140.8205  144.8079  159.8620 C.2     1  UNL1        0.3078
      3 N         139.7103  144.7138  158.8578 N.am    1  UNL1       -0.2681
      4 N         140.5350  144.5900  161.3184 N.am    1  UNL1       -0.2611
      5 C         141.6452  144.6841  162.3226 C.3     1  UNL1        0.1123
      6 C         141.3596  144.4662  163.7790 C.3     1  UNL1        0.0940
      7 N         139.9638  144.1542  164.2311 N.3     1  UNL1       -0.2697
      8 C         138.8536  144.0601  163.2268 C.3     1  UNL1        0.0940
      9 C         139.1392  144.2780  161.7705 C.3     1  UNL1        0.1123
     10 H         138.7942  144.5090  159.1545 H       1  UNL1        0.1564
     11 C         139.9959  144.9317  157.4014 C.ar    1  UNL1        0.0516
     12 C         140.2470  143.7575  156.5025 C.ar    1  UNL1        0.0156
     13 C         140.5325  143.9754  155.0461 C.ar    1  UNL1        0.0127
     14 C         140.5669  145.3676  154.4887 C.ar    1  UNL1        0.0578
     15 CL        140.8525  145.5855  153.0323 Cl      1  UNL1       -0.0822
     16 C         140.3158  146.5418  155.3876 C.ar    1  UNL1        0.0127
     17 C         140.0302  146.3239  156.8440 C.ar    1  UNL1        0.0156
     18 C         139.6783  143.9363  165.6875 C.3     1  UNL1        0.0735
     19 C         140.0064  142.6199  166.3273 C.3     1  UNL1        0.0320
     20 C         140.5922  142.5823  167.7077 C.3     1  UNL1        0.0042
     21 C         140.9204  141.2659  168.3476 C.3     1  UNL1        0.0174
     22 C         140.6628  139.9871  167.6070 C.3     1  UNL1        0.0720
     23 N         140.0770  140.0247  166.2267 N.3     1  UNL1       -0.2739
     24 C         139.7488  141.3412  165.5868 C.3     1  UNL1        0.0734
     25 C         139.8193  138.7460  165.4862 C.3     1  UNL1        0.0576
     26 C         138.9088  137.6046  165.1427 C.3     1  UNL1        0.0173
     27 C         140.2837  137.6725  164.5470 C.3     1  UNL1        0.0173
@<TRIPOS>BOND
     1     1     2    2
     2     2     3   am
     3     3    11    1
     4    11    12   ar
     5    12    13   ar
     6    13    14   ar
     7    14    15    1
     8    14    16   ar
     9    16    17   ar
    10     2     4   am
    11     4     5    1
    12     5     6    1
    13     6     7    1
    14     7    18    1
    15    19    18    1
    16    19    20    1
    17    20    21    1
    18    21    22    1
    19    22    23    1
    20    23    25    1
    21    25    26    1
    22    26    27    1
    23    23    24    1
    24     7     8    1
    25     8     9    1
    26    17    11   ar
    27     9     4    1
    28    24    19    1
    29    27    25    1
    30     3    10    1
