@<TRIPOS>MOLECULE
*****
 37 41 0 0 0
SMALL
GASTEIGER

@<TRIPOS>ATOM
      1 C         141.7908  138.1988  163.5255 C.ar    1  UNL1        0.1533
      2 C         141.3367  138.9178  164.7613 C.ar    1  UNL1        0.0527
      3 C         142.2937  139.7947  165.5131 C.ar    1  UNL1        0.0511
      4 C         143.7047  139.9527  165.0292 C.ar    1  UNL1        0.0160
      5 C         144.1587  139.2338  163.7935 C.ar    1  UNL1        0.0190
      6 C         143.2018  138.3568  163.0416 C.ar    1  UNL1        0.0850
      7 N         141.8396  140.5136  166.7487 N.pl3   1  UNL1       -0.3040
      8 C         141.2706  141.8976  166.6448 C.3     1  UNL1        0.1124
      9 C         140.8165  142.6166  167.8805 C.3     1  UNL1        0.1164
     10 N         140.9314  141.9516  169.2200 N.am    1  UNL1       -0.2609
     11 C         140.4773  142.6705  170.4558 C.2     1  UNL1        0.3009
     12 N         139.9083  144.0545  170.3518 N.am    1  UNL1       -0.3132
     13 O         140.5922  142.0055  171.7954 O.2     1  UNL1       -0.2528
     14 C         141.5004  140.5676  169.3240 C.3     1  UNL1        0.1164
     15 C         141.9545  139.8486  168.0883 C.3     1  UNL1        0.1124
     16 H         139.8329  144.4910  169.4726 H       1  UNL1        0.1465
     17 H         139.6102  144.5264  171.1628 H       1  UNL1        0.1465
     18 C         139.8606  137.9294  161.8074 C.3     1  UNL1        0.2525
     19 O         140.8338  137.3219  162.7737 O.3     1  UNL1       -0.4701
     20 N         143.6558  137.6379  161.8059 N.pl3   1  UNL1       -0.2802
     21 H         144.1169  136.7714  161.8820 H       1  UNL1        0.1552
     22 C         143.4075  138.2392  160.4543 C.ar    1  UNL1        0.2208
     23 N         143.8858  139.6283  160.1521 N.ar    1  UNL1       -0.2111
     24 C         143.6375  140.2296  158.8005 C.ar    1  UNL1        0.1147
     25 C         142.9107  139.4417  157.7512 C.ar    1  UNL1        0.0960
     26 CL        142.6623  140.0430  156.3996 Cl      1  UNL1       -0.0790
     27 C         142.4323  138.0525  158.0535 C.ar    1  UNL1        0.1138
     28 N         142.6807  137.4513  159.4050 N.ar    1  UNL1       -0.2111
     29 C         141.7056  137.2646  157.0041 C.ar    1  UNL1        0.1031
     30 C         140.3542  137.5862  156.4382 C.ar    1  UNL1        0.1196
     31 N         140.0161  136.5371  155.4208 N.ar    1  UNL1       -0.2248
     32 C         141.1585  135.5671  155.3580 C.ar    1  UNL1        0.1479
     33 C         141.3829  134.3325  154.5361 C.ar    1  UNL1        0.0374
     34 C         142.6514  133.5475  154.6929 C.ar    1  UNL1        0.0046
     35 C         143.6956  133.9971  155.6714 C.ar    1  UNL1        0.0191
     36 C         143.4712  135.2317  156.4933 C.ar    1  UNL1        0.0815
     37 N         142.2027  136.0167  156.3365 N.ar    1  UNL1       -0.2874
@<TRIPOS>BOND
     1    18    19    1
     2    19     1    1
     3     1     2   ar
     4     2     3   ar
     5     3     7    1
     6     7     8    1
     7     8     9    1
     8     9    10    1
     9    10    11   am
    10    11    12   am
    11    11    13    2
    12    10    14    1
    13    14    15    1
    14     3     4   ar
    15     4     5   ar
    16     5     6   ar
    17     6    20    1
    18    20    22    1
    19    22    23   ar
    20    23    24   ar
    21    24    25   ar
    22    25    26    1
    23    25    27   ar
    24    27    29    1
    25    29    30   ar
    26    30    31   ar
    27    31    32   ar
    28    32    33   ar
    29    33    34   ar
    30    34    35   ar
    31    35    36   ar
    32    36    37   ar
    33    27    28   ar
    34     6     1   ar
    35    28    22   ar
    36    15     7    1
    37    37    29   ar
    38    37    32   ar
    39    12    16    1
    40    12    17    1
    41    20    21    1
@<TRIPOS>MOLECULE
*****
 37 41 0 0 0
SMALL
GASTEIGER

@<TRIPOS>ATOM
      1 C         137.9345  140.5072  163.4495 C.ar    1  UNL1        0.1533
      2 C         138.6219  140.7189  164.7659 C.ar    1  UNL1        0.0527
      3 C         139.4175  139.6074  165.3838 C.ar    1  UNL1        0.0511
      4 C         139.5256  138.2843  164.6854 C.ar    1  UNL1        0.0160
      5 C         138.8382  138.0727  163.3691 C.ar    1  UNL1        0.0190
      6 C         138.0426  139.1841  162.7511 C.ar    1  UNL1        0.0850
      7 N         140.1049  139.8191  166.7001 N.pl3   1  UNL1       -0.3040
      8 C         141.5889  139.6306  166.8100 C.3     1  UNL1        0.1124
      9 C         142.2764  139.8423  168.1263 C.3     1  UNL1        0.1164
     10 N         141.4798  140.2425  169.3326 N.am    1  UNL1       -0.2609
     11 C         142.1672  140.4543  170.6489 C.2     1  UNL1        0.3009
     12 N         143.6513  140.2658  170.7588 N.am    1  UNL1       -0.3132
     13 O         141.3707  140.8545  171.8553 O.2     1  UNL1       -0.2528
     14 C         139.9958  140.4311  169.2227 C.3     1  UNL1        0.1164
     15 C         139.3083  140.2194  167.9064 C.3     1  UNL1        0.1124
     16 H         144.1741  140.0031  169.9671 H       1  UNL1        0.1465
     17 H         144.1025  140.4047  171.6227 H       1  UNL1        0.1465
     18 C         137.6898  143.0137  162.8110 C.3     1  UNL1        0.2525
     19 O         137.1389  141.6186  162.8316 O.3     1  UNL1       -0.4701
     20 N         137.3552  138.9724  161.4348 N.pl3   1  UNL1       -0.2802
     21 H         136.4356  138.6216  161.4106 H       1  UNL1        0.1552
     22 C         138.0688  139.2951  160.1555 C.ar    1  UNL1        0.2208
     23 N         139.3931  138.6583  159.8543 N.ar    1  UNL1       -0.2111
     24 C         140.1067  138.9810  158.5750 C.ar    1  UNL1        0.1147
     25 C         139.4960  139.9405  157.5970 C.ar    1  UNL1        0.0960
     26 CL        140.2096  140.2631  156.3177 Cl      1  UNL1       -0.0790
     27 C         138.1717  140.5773  157.8983 C.ar    1  UNL1        0.1138
     28 N         137.4582  140.2546  159.1775 N.ar    1  UNL1       -0.2111
     29 C         137.5610  141.5368  156.9203 C.ar    1  UNL1        0.1031
     30 C         136.3096  141.3084  156.1254 C.ar    1  UNL1        0.1196
     31 N         136.0698  142.5236  155.2793 N.ar    1  UNL1       -0.2248
     32 C         137.1730  143.5029  155.5513 C.ar    1  UNL1        0.1479
     33 C         137.4573  144.8713  155.0065 C.ar    1  UNL1        0.0374
     34 C         138.6633  145.6297  155.4759 C.ar    1  UNL1        0.0046
     35 C         139.5849  145.0197  156.4901 C.ar    1  UNL1        0.0191
     36 C         139.3006  143.6514  157.0349 C.ar    1  UNL1        0.0815
     37 N         138.0946  142.8930  156.5655 N.ar    1  UNL1       -0.2874
@<TRIPOS>BOND
     1    18    19    1
     2    19     1    1
     3     1     2   ar
     4     2     3   ar
     5     3     7    1
     6     7     8    1
     7     8     9    1
     8     9    10    1
     9    10    11   am
    10    11    12   am
    11    11    13    2
    12    10    14    1
    13    14    15    1
    14     3     4   ar
    15     4     5   ar
    16     5     6   ar
    17     6    20    1
    18    20    22    1
    19    22    23   ar
    20    23    24   ar
    21    24    25   ar
    22    25    26    1
    23    25    27   ar
    24    27    29    1
    25    29    30   ar
    26    30    31   ar
    27    31    32   ar
    28    32    33   ar
    29    33    34   ar
    30    34    35   ar
    31    35    36   ar
    32    36    37   ar
    33    27    28   ar
    34     6     1   ar
    35    28    22   ar
    36    15     7    1
    37    37    29   ar
    38    37    32   ar
    39    12    16    1
    40    12    17    1
    41    20    21    1
@<TRIPOS>MOLECULE
*****
 37 41 0 0 0
SMALL
GASTEIGER

@<TRIPOS>ATOM
      1 C         142.0049  144.5054  163.2583 C.ar    1  UNL1        0.1533
      2 C         142.1020  143.7123  164.5279 C.ar    1  UNL1        0.0527
      3 C         140.8709  143.4480  165.3431 C.ar    1  UNL1        0.0511
      4 C         139.5427  143.9767  164.8888 C.ar    1  UNL1        0.0160
      5 C         139.4456  144.7697  163.6193 C.ar    1  UNL1        0.0190
      6 C         140.6767  145.0341  162.8040 C.ar    1  UNL1        0.0850
      7 N         140.9681  142.6550  166.6126 N.pl3   1  UNL1       -0.3040
      8 C         141.7089  141.3508  166.6273 C.3     1  UNL1        0.1124
      9 C         141.8061  140.5577  167.8968 C.3     1  UNL1        0.1164
     10 N         141.1626  141.0689  169.1515 N.am    1  UNL1       -0.2609
     11 C         141.2598  140.2758  170.4211 C.2     1  UNL1        0.3009
     12 N         142.0006  138.9716  170.4358 N.am    1  UNL1       -0.3132
     13 O         140.6162  140.7870  171.6759 O.2     1  UNL1       -0.2528
     14 C         140.4218  142.3731  169.1369 C.3     1  UNL1        0.1164
     15 C         140.3246  143.1662  167.8674 C.3     1  UNL1        0.1124
     16 H         142.4230  138.6361  169.6122 H       1  UNL1        0.1465
     17 H         142.0644  138.4511  171.2690 H       1  UNL1        0.1465
     18 C         144.3069  143.7243  162.3413 C.3     1  UNL1        0.2525
     19 O         143.2360  144.7696  162.4430 O.3     1  UNL1       -0.4701
     20 N         140.5795  145.8271  161.5345 N.pl3   1  UNL1       -0.2802
     21 H         140.4535  146.8028  161.5720 H       1  UNL1        0.1552
     22 C         140.6743  145.1336  160.2078 C.ar    1  UNL1        0.2208
     23 N         141.7736  145.4906  159.2518 N.ar    1  UNL1       -0.2111
     24 C         141.8685  144.7972  157.9251 C.ar    1  UNL1        0.1147
     25 C         140.8639  143.7466  157.5545 C.ar    1  UNL1        0.0960
     26 CL        140.9587  143.0532  156.2278 Cl      1  UNL1       -0.0790
     27 C         139.7646  143.3896  158.5106 C.ar    1  UNL1        0.1138
     28 N         139.6698  144.0831  159.8372 N.ar    1  UNL1       -0.2111
     29 C         138.7600  142.3391  158.1399 C.ar    1  UNL1        0.1031
     30 C         138.5726  141.0178  158.8247 C.ar    1  UNL1        0.1196
     31 N         137.4633  140.2876  158.1274 N.ar    1  UNL1       -0.2248
     32 C         136.9652  141.1576  157.0116 C.ar    1  UNL1        0.1479
     33 C         135.8854  140.9590  155.9896 C.ar    1  UNL1        0.0374
     34 C         135.6070  142.0285  154.9753 C.ar    1  UNL1        0.0046
     35 C         136.4085  143.2964  154.9830 C.ar    1  UNL1        0.0191
     36 C         137.4883  143.4949  156.0051 C.ar    1  UNL1        0.0815
     37 N         137.7666  142.4255  157.0193 N.ar    1  UNL1       -0.2874
@<TRIPOS>BOND
     1    18    19    1
     2    19     1    1
     3     1     2   ar
     4     2     3   ar
     5     3     7    1
     6     7     8    1
     7     8     9    1
     8     9    10    1
     9    10    11   am
    10    11    12   am
    11    11    13    2
    12    10    14    1
    13    14    15    1
    14     3     4   ar
    15     4     5   ar
    16     5     6   ar
    17     6    20    1
    18    20    22    1
    19    22    23   ar
    20    23    24   ar
    21    24    25   ar
    22    25    26    1
    23    25    27   ar
    24    27    29    1
    25    29    30   ar
    26    30    31   ar
    27    31    32   ar
    28    32    33   ar
    29    33    34   ar
    30    34    35   ar
    31    35    36   ar
    32    36    37   ar
    33    27    28   ar
    34     6     1   ar
    35    28    22   ar
    36    15     7    1
    37    37    29   ar
    38    37    32   ar
    39    12    16    1
    40    12    17    1
    41    20    21    1
@<TRIPOS>MOLECULE
*****
 37 41 0 0 0
SMALL
GASTEIGER

@<TRIPOS>ATOM
      1 C         137.9501  140.4509  163.4671 C.ar    1  UNL1        0.1533
      2 C         138.6265  140.6690  164.7882 C.ar    1  UNL1        0.0527
      3 C         139.4357  139.5680  165.4073 C.ar    1  UNL1        0.0511
      4 C         139.5685  138.2491  164.7053 C.ar    1  UNL1        0.0160
      5 C         138.8921  138.0311  163.3843 C.ar    1  UNL1        0.0190
      6 C         138.0829  139.1320  162.7652 C.ar    1  UNL1        0.0850
      7 N         140.1120  139.7861  166.7282 N.pl3   1  UNL1       -0.3040
      8 C         141.6002  139.6372  166.8425 C.3     1  UNL1        0.1124
      9 C         142.2766  139.8552  168.1635 C.3     1  UNL1        0.1164
     10 N         141.4647  140.2223  169.3701 N.am    1  UNL1       -0.2609
     11 C         142.1410  140.4404  170.6912 C.2     1  UNL1        0.3009
     12 N         143.6293  140.2914  170.8054 N.am    1  UNL1       -0.3132
     13 O         141.3292  140.8075  171.8979 O.2     1  UNL1       -0.2528
     14 C         139.9765  140.3713  169.2559 C.3     1  UNL1        0.1164
     15 C         139.3001  140.1532  167.9350 C.3     1  UNL1        0.1124
     16 H         144.1621  140.0505  170.0134 H       1  UNL1        0.1465
     17 H         144.0732  140.4345  171.6724 H       1  UNL1        0.1465
     18 C         137.8166  142.8056  162.3773 C.3     1  UNL1        0.2525
     19 O         137.1410  141.5519  162.8481 O.3     1  UNL1       -0.4701
     20 N         137.4067  138.9139  161.4442 N.pl3   1  UNL1       -0.2802
     21 H         136.5188  138.4900  161.4099 H       1  UNL1        0.1552
     22 C         138.0831  139.3417  160.1756 C.ar    1  UNL1        0.2208
     23 N         137.6074  140.5637  159.4473 N.ar    1  UNL1       -0.2111
     24 C         138.2838  140.9915  158.1787 C.ar    1  UNL1        0.1147
     25 C         139.4359  140.1974  157.6384 C.ar    1  UNL1        0.0960
     26 CL        140.1123  140.6252  156.3697 Cl      1  UNL1       -0.0790
     27 C         139.9116  138.9753  158.3667 C.ar    1  UNL1        0.1138
     28 N         139.2352  138.5476  159.6353 N.ar    1  UNL1       -0.2111
     29 C         141.0637  138.1811  157.8264 C.ar    1  UNL1        0.1031
     30 C         142.4326  138.0891  158.4328 C.ar    1  UNL1        0.1196
     31 N         143.2641  137.1907  157.5659 N.ar    1  UNL1       -0.2248
     32 C         142.4091  136.7274  156.4238 C.ar    1  UNL1        0.1479
     33 C         142.6932  135.8273  155.2581 C.ar    1  UNL1        0.0374
     34 C         141.6174  135.5394  154.2533 C.ar    1  UNL1        0.0046
     35 C         140.2574  136.1515  154.4142 C.ar    1  UNL1        0.0191
     36 C         139.9734  137.0516  155.5800 C.ar    1  UNL1        0.0815
     37 N         141.0492  137.3396  156.5848 N.ar    1  UNL1       -0.2874
@<TRIPOS>BOND
     1    18    19    1
     2    19     1    1
     3     1     2   ar
     4     2     3   ar
     5     3     7    1
     6     7     8    1
     7     8     9    1
     8     9    10    1
     9    10    11   am
    10    11    12   am
    11    11    13    2
    12    10    14    1
    13    14    15    1
    14     3     4   ar
    15     4     5   ar
    16     5     6   ar
    17     6    20    1
    18    20    22    1
    19    22    23   ar
    20    23    24   ar
    21    24    25   ar
    22    25    26    1
    23    25    27   ar
    24    27    29    1
    25    29    30   ar
    26    30    31   ar
    27    31    32   ar
    28    32    33   ar
    29    33    34   ar
    30    34    35   ar
    31    35    36   ar
    32    36    37   ar
    33    27    28   ar
    34     6     1   ar
    35    28    22   ar
    36    15     7    1
    37    37    29   ar
    38    37    32   ar
    39    12    16    1
    40    12    17    1
    41    20    21    1
@<TRIPOS>MOLECULE
*****
 37 41 0 0 0
SMALL
GASTEIGER

@<TRIPOS>ATOM
      1 C         137.9219  140.4963  163.4034 C.ar    1  UNL1        0.1533
      2 C         138.5999  140.7046  164.7252 C.ar    1  UNL1        0.0527
      3 C         139.4000  139.5952  165.3408 C.ar    1  UNL1        0.0511
      4 C         139.5221  138.2774  164.6347 C.ar    1  UNL1        0.0160
      5 C         138.8441  138.0691  163.3130 C.ar    1  UNL1        0.0190
      6 C         138.0440  139.1786  162.6973 C.ar    1  UNL1        0.0850
      7 N         140.0779  139.8035  166.6625 N.pl3   1  UNL1       -0.3040
      8 C         141.5633  139.6297  166.7791 C.3     1  UNL1        0.1124
      9 C         142.2413  139.8381  168.1008 C.3     1  UNL1        0.1164
     10 N         141.4340  140.2202  169.3058 N.am    1  UNL1       -0.2609
     11 C         142.1120  140.4286  170.6276 C.2     1  UNL1        0.3009
     12 N         143.5973  140.2548  170.7442 N.am    1  UNL1       -0.3132
     13 O         141.3047  140.8107  171.8327 O.2     1  UNL1       -0.2528
     14 C         139.9487  140.3940  169.1892 C.3     1  UNL1        0.1164
     15 C         139.2706  140.1856  167.8675 C.3     1  UNL1        0.1124
     16 H         144.1272  140.0040  169.9533 H       1  UNL1        0.1465
     17 H         144.0423  140.3916  171.6117 H       1  UNL1        0.1465
     18 C         137.7862  142.9039  162.4363 C.3     1  UNL1        0.2525
     19 O         137.1219  141.6058  162.7878 O.3     1  UNL1       -0.4701
     20 N         137.3661  138.9702  161.3756 N.pl3   1  UNL1       -0.2802
     21 H         136.4536  138.6020  161.3430 H       1  UNL1        0.1552
     22 C         138.0783  139.3228  160.1034 C.ar    1  UNL1        0.2208
     23 N         139.4407  138.7600  159.8259 N.ar    1  UNL1       -0.2111
     24 C         140.1530  139.1126  158.5538 C.ar    1  UNL1        0.1147
     25 C         139.5028  140.0279  157.5591 C.ar    1  UNL1        0.0960
     26 CL        140.2151  140.3805  156.2870 Cl      1  UNL1       -0.0790
     27 C         138.1403  140.5908  157.8366 C.ar    1  UNL1        0.1138
     28 N         137.4281  140.2382  159.1087 N.ar    1  UNL1       -0.2111
     29 C         137.4901  141.5061  156.8420 C.ar    1  UNL1        0.1031
     30 C         137.4198  143.0016  156.9346 C.ar    1  UNL1        0.1196
     31 N         136.6823  143.5064  155.7299 N.ar    1  UNL1       -0.2248
     32 C         136.2969  142.3229  154.8927 C.ar    1  UNL1        0.1479
     33 C         135.5558  142.2113  153.5934 C.ar    1  UNL1        0.0374
     34 C         135.3140  140.8634  152.9814 C.ar    1  UNL1        0.0046
     35 C         135.8132  139.6271  153.6687 C.ar    1  UNL1        0.0191
     36 C         136.5543  139.7388  154.9680 C.ar    1  UNL1        0.0815
     37 N         136.7961  141.0867  155.5800 N.ar    1  UNL1       -0.2874
@<TRIPOS>BOND
     1    18    19    1
     2    19     1    1
     3     1     2   ar
     4     2     3   ar
     5     3     7    1
     6     7     8    1
     7     8     9    1
     8     9    10    1
     9    10    11   am
    10    11    12   am
    11    11    13    2
    12    10    14    1
    13    14    15    1
    14     3     4   ar
    15     4     5   ar
    16     5     6   ar
    17     6    20    1
    18    20    22    1
    19    22    23   ar
    20    23    24   ar
    21    24    25   ar
    22    25    26    1
    23    25    27   ar
    24    27    29    1
    25    29    30   ar
    26    30    31   ar
    27    31    32   ar
    28    32    33   ar
    29    33    34   ar
    30    34    35   ar
    31    35    36   ar
    32    36    37   ar
    33    27    28   ar
    34     6     1   ar
    35    28    22   ar
    36    15     7    1
    37    37    29   ar
    38    37    32   ar
    39    12    16    1
    40    12    17    1
    41    20    21    1
@<TRIPOS>MOLECULE
*****
 37 41 0 0 0
SMALL
GASTEIGER

@<TRIPOS>ATOM
      1 C         137.9296  141.7024  163.3731 C.ar    1  UNL1        0.1533
      2 C         138.4934  141.9118  164.7473 C.ar    1  UNL1        0.0527
      3 C         139.0680  140.7529  165.5068 C.ar    1  UNL1        0.0511
      4 C         139.0789  139.3847  164.8921 C.ar    1  UNL1        0.0160
      5 C         138.5152  139.1754  163.5180 C.ar    1  UNL1        0.0190
      6 C         137.9406  140.3342  162.7584 C.ar    1  UNL1        0.0850
      7 N         139.6317  140.9623  166.8810 N.pl3   1  UNL1       -0.3040
      8 C         140.6248  142.0597  167.1250 C.3     1  UNL1        0.1124
      9 C         141.1885  142.2692  168.4992 C.3     1  UNL1        0.1164
     10 N         140.7591  141.3813  169.6293 N.am    1  UNL1       -0.2609
     11 C         141.3228  141.5908  171.0035 C.2     1  UNL1        0.3009
     12 N         142.3159  142.6881  171.2475 N.am    1  UNL1       -0.3132
     13 O         140.8935  140.7029  172.1337 O.2     1  UNL1       -0.2528
     14 C         139.7660  140.2840  169.3853 C.3     1  UNL1        0.1164
     15 C         139.2023  140.0745  168.0112 C.3     1  UNL1        0.1124
     16 H         142.5977  143.2709  170.5057 H       1  UNL1        0.1465
     17 H         142.6859  142.8256  172.1494 H       1  UNL1        0.1465
     18 C         137.6977  144.2653  163.0153 C.3     1  UNL1        0.2525
     19 O         137.3550  142.8613  162.6136 O.3     1  UNL1       -0.4701
     20 N         137.3769  140.1248  161.3842 N.pl3   1  UNL1       -0.2802
     21 H         136.4451  139.8264  161.2746 H       1  UNL1        0.1552
     22 C         138.2328  140.3699  160.1770 C.ar    1  UNL1        0.2208
     23 N         138.6620  139.2193  159.3158 N.ar    1  UNL1       -0.2111
     24 C         139.5179  139.4645  158.1086 C.ar    1  UNL1        0.1147
     25 C         139.9446  140.8603  157.7627 C.ar    1  UNL1        0.0960
     26 CL        140.8005  141.1055  156.5555 Cl      1  UNL1       -0.0790
     27 C         139.5153  142.0110  158.6240 C.ar    1  UNL1        0.1138
     28 N         138.6595  141.7658  159.8311 N.ar    1  UNL1       -0.2111
     29 C         139.9420  143.4068  158.2780 C.ar    1  UNL1        0.1031
     30 C         140.9992  144.2054  158.9813 C.ar    1  UNL1        0.1196
     31 N         141.0969  145.5412  158.3060 N.ar    1  UNL1       -0.2248
     32 C         140.1002  145.5682  157.1853 C.ar    1  UNL1        0.1479
     33 C         139.7504  146.6234  156.1784 C.ar    1  UNL1        0.0374
     34 C         138.6867  146.3595  155.1542 C.ar    1  UNL1        0.0046
     35 C         137.9730  145.0404  155.1369 C.ar    1  UNL1        0.0191
     36 C         138.3228  143.9851  156.1439 C.ar    1  UNL1        0.0815
     37 N         139.3864  144.2490  157.1681 N.ar    1  UNL1       -0.2874
@<TRIPOS>BOND
     1    18    19    1
     2    19     1    1
     3     1     2   ar
     4     2     3   ar
     5     3     7    1
     6     7     8    1
     7     8     9    1
     8     9    10    1
     9    10    11   am
    10    11    12   am
    11    11    13    2
    12    10    14    1
    13    14    15    1
    14     3     4   ar
    15     4     5   ar
    16     5     6   ar
    17     6    20    1
    18    20    22    1
    19    22    23   ar
    20    23    24   ar
    21    24    25   ar
    22    25    26    1
    23    25    27   ar
    24    27    29    1
    25    29    30   ar
    26    30    31   ar
    27    31    32   ar
    28    32    33   ar
    29    33    34   ar
    30    34    35   ar
    31    35    36   ar
    32    36    37   ar
    33    27    28   ar
    34     6     1   ar
    35    28    22   ar
    36    15     7    1
    37    37    29   ar
    38    37    32   ar
    39    12    16    1
    40    12    17    1
    41    20    21    1
@<TRIPOS>MOLECULE
*****
 37 41 0 0 0
SMALL
GASTEIGER

@<TRIPOS>ATOM
      1 C         144.0075  139.8016  163.1867 C.ar    1  UNL1        0.1533
      2 C         143.3977  140.0432  164.5357 C.ar    1  UNL1        0.0527
      3 C         142.1947  139.2575  164.9666 C.ar    1  UNL1        0.0511
      4 C         141.6015  138.2303  164.0484 C.ar    1  UNL1        0.0160
      5 C         142.2114  137.9888  162.6995 C.ar    1  UNL1        0.0190
      6 C         143.4143  138.7744  162.2685 C.ar    1  UNL1        0.0850
      7 N         141.5850  139.4991  166.3156 N.pl3   1  UNL1       -0.3040
      8 C         142.4572  139.5482  167.5349 C.3     1  UNL1        0.1124
      9 C         141.8475  139.7899  168.8840 C.3     1  UNL1        0.1164
     10 N         140.3656  139.9824  169.0136 N.am    1  UNL1       -0.2609
     11 C         139.7558  140.2240  170.3627 C.2     1  UNL1        0.3009
     12 N         140.6281  140.2731  171.5820 N.am    1  UNL1       -0.3132
     13 O         138.2739  140.4165  170.4924 O.2     1  UNL1       -0.2528
     14 C         139.4934  139.9333  167.7943 C.3     1  UNL1        0.1164
     15 C         140.1030  139.6917  166.4453 C.3     1  UNL1        0.1124
     16 H         141.6007  140.1467  171.4969 H       1  UNL1        0.1465
     17 H         140.2279  140.4317  172.4674 H       1  UNL1        0.1465
     18 C         145.7452  141.6809  163.6321 C.3     1  UNL1        0.2525
     19 O         145.2105  140.5873  162.7558 O.3     1  UNL1       -0.4701
     20 N         144.0241  138.5328  160.9196 N.pl3   1  UNL1       -0.2802
     21 H         144.7175  137.8427  160.8093 H       1  UNL1        0.1552
     22 C         143.5773  139.3425  159.7386 C.ar    1  UNL1        0.2208
     23 N         143.5709  138.7308  158.3690 N.ar    1  UNL1       -0.2111
     24 C         143.1241  139.5405  157.1880 C.ar    1  UNL1        0.1147
     25 C         142.6838  140.9619  157.3766 C.ar    1  UNL1        0.0960
     26 CL        142.2370  141.7717  156.1956 Cl      1  UNL1       -0.0790
     27 C         142.6902  141.5737  158.7463 C.ar    1  UNL1        0.1138
     28 N         143.1369  140.7640  159.9272 N.ar    1  UNL1       -0.2111
     29 C         142.2498  142.9952  158.9348 C.ar    1  UNL1        0.1031
     30 C         142.6763  144.1681  158.1028 C.ar    1  UNL1        0.1196
     31 N         141.9957  145.3910  158.6423 N.ar    1  UNL1       -0.2248
     32 C         141.1486  144.9740  159.8078 C.ar    1  UNL1        0.1479
     33 C         140.2545  145.7512  160.7278 C.ar    1  UNL1        0.0374
     34 C         139.5175  145.0477  161.8286 C.ar    1  UNL1        0.0046
     35 C         139.6745  143.5669  162.0094 C.ar    1  UNL1        0.0191
     36 C         140.5686  142.7897  161.0894 C.ar    1  UNL1        0.0815
     37 N         141.3056  143.4932  159.9886 N.ar    1  UNL1       -0.2874
@<TRIPOS>BOND
     1    18    19    1
     2    19     1    1
     3     1     2   ar
     4     2     3   ar
     5     3     7    1
     6     7     8    1
     7     8     9    1
     8     9    10    1
     9    10    11   am
    10    11    12   am
    11    11    13    2
    12    10    14    1
    13    14    15    1
    14     3     4   ar
    15     4     5   ar
    16     5     6   ar
    17     6    20    1
    18    20    22    1
    19    22    23   ar
    20    23    24   ar
    21    24    25   ar
    22    25    26    1
    23    25    27   ar
    24    27    29    1
    25    29    30   ar
    26    30    31   ar
    27    31    32   ar
    28    32    33   ar
    29    33    34   ar
    30    34    35   ar
    31    35    36   ar
    32    36    37   ar
    33    27    28   ar
    34     6     1   ar
    35    28    22   ar
    36    15     7    1
    37    37    29   ar
    38    37    32   ar
    39    12    16    1
    40    12    17    1
    41    20    21    1
@<TRIPOS>MOLECULE
*****
 37 41 0 0 0
SMALL
GASTEIGER

@<TRIPOS>ATOM
      1 C         137.9055  140.5800  163.3648 C.ar    1  UNL1        0.1533
      2 C         138.5183  140.7353  164.7252 C.ar    1  UNL1        0.0527
      3 C         139.3353  139.6222  165.3113 C.ar    1  UNL1        0.0511
      4 C         139.5395  138.3538  164.5371 C.ar    1  UNL1        0.0160
      5 C         138.9268  138.1985  163.1768 C.ar    1  UNL1        0.0190
      6 C         138.1097  139.3115  162.5906 C.ar    1  UNL1        0.0850
      7 N         139.9481  139.7776  166.6715 N.pl3   1  UNL1       -0.3040
      8 C         141.4205  139.5619  166.8599 C.3     1  UNL1        0.1124
      9 C         142.0333  139.7173  168.2202 C.3     1  UNL1        0.1164
     10 N         141.1737  140.0884  169.3920 N.am    1  UNL1       -0.2609
     11 C         141.7865  140.2438  170.7524 C.2     1  UNL1        0.3009
     12 N         143.2589  140.0281  170.9407 N.am    1  UNL1       -0.3132
     13 O         140.9269  140.6149  171.9243 O.2     1  UNL1       -0.2528
     14 C         139.7013  140.3041  169.2037 C.3     1  UNL1        0.1164
     15 C         139.0885  140.1487  167.8434 C.3     1  UNL1        0.1124
     16 H         143.8230  139.7845  170.1715 H       1  UNL1        0.1465
     17 H         143.6611  140.1301  171.8335 H       1  UNL1        0.1465
     18 C         137.7259  143.0201  162.4909 C.3     1  UNL1        0.2525
     19 O         137.0885  141.6931  162.7787 O.3     1  UNL1       -0.4701
     20 N         137.4970  139.1561  161.2304 N.pl3   1  UNL1       -0.2802
     21 H         136.7546  138.5241  161.0942 H       1  UNL1        0.1552
     22 C         138.0154  139.9637  160.0775 C.ar    1  UNL1        0.2208
     23 N         137.1996  140.0929  158.8254 N.ar    1  UNL1       -0.2111
     24 C         137.7179  140.9005  157.6726 C.ar    1  UNL1        0.1147
     25 C         139.0520  141.5790  157.7718 C.ar    1  UNL1        0.0960
     26 CL        139.5704  142.3866  156.6190 Cl      1  UNL1       -0.0790
     27 C         139.8679  141.4498  159.0240 C.ar    1  UNL1        0.1138
     28 N         139.3495  140.6422  160.1768 N.ar    1  UNL1       -0.2111
     29 C         141.2020  142.1282  159.1233 C.ar    1  UNL1        0.1031
     30 C         141.5192  143.3312  159.9613 C.ar    1  UNL1        0.1196
     31 N         142.9664  143.6692  159.7578 N.ar    1  UNL1       -0.2248
     32 C         143.5436  142.6752  158.7941 C.ar    1  UNL1        0.1479
     33 C         144.9212  142.5142  158.2230 C.ar    1  UNL1        0.0374
     34 C         145.2083  141.4009  157.2597 C.ar    1  UNL1        0.0046
     35 C         144.1179  140.4485  156.8675 C.ar    1  UNL1        0.0191
     36 C         142.7402  140.6094  157.4386 C.ar    1  UNL1        0.0815
     37 N         142.4531  141.7228  158.4019 N.ar    1  UNL1       -0.2874
@<TRIPOS>BOND
     1    18    19    1
     2    19     1    1
     3     1     2   ar
     4     2     3   ar
     5     3     7    1
     6     7     8    1
     7     8     9    1
     8     9    10    1
     9    10    11   am
    10    11    12   am
    11    11    13    2
    12    10    14    1
    13    14    15    1
    14     3     4   ar
    15     4     5   ar
    16     5     6   ar
    17     6    20    1
    18    20    22    1
    19    22    23   ar
    20    23    24   ar
    21    24    25   ar
    22    25    26    1
    23    25    27   ar
    24    27    29    1
    25    29    30   ar
    26    30    31   ar
    27    31    32   ar
    28    32    33   ar
    29    33    34   ar
    30    34    35   ar
    31    35    36   ar
    32    36    37   ar
    33    27    28   ar
    34     6     1   ar
    35    28    22   ar
    36    15     7    1
    37    37    29   ar
    38    37    32   ar
    39    12    16    1
    40    12    17    1
    41    20    21    1
@<TRIPOS>MOLECULE
*****
 37 41 0 0 0
SMALL
GASTEIGER

@<TRIPOS>ATOM
      1 C         139.8567  144.0600  163.4954 C.ar    1  UNL1        0.1533
      2 C         140.1309  143.2107  164.7011 C.ar    1  UNL1        0.0527
      3 C         141.5288  143.0906  165.2317 C.ar    1  UNL1        0.0511
      4 C         142.6525  143.8198  164.5566 C.ar    1  UNL1        0.0160
      5 C         142.3782  144.6690  163.3509 C.ar    1  UNL1        0.0190
      6 C         140.9803  144.7891  162.8203 C.ar    1  UNL1        0.0850
      7 N         141.8030  142.2414  166.4373 N.pl3   1  UNL1       -0.3040
      8 C         141.6125  142.8084  167.8130 C.3     1  UNL1        0.1124
      9 C         141.8867  141.9592  169.0188 C.3     1  UNL1        0.1164
     10 N         142.3513  140.5432  168.8488 N.am    1  UNL1       -0.2609
     11 C         142.6255  139.6939  170.0545 C.2     1  UNL1        0.3009
     12 N         142.4350  140.2608  171.4301 N.am    1  UNL1       -0.3132
     13 O         143.0901  138.2778  169.8846 O.2     1  UNL1       -0.2528
     14 C         142.5417  139.9762  167.4732 C.3     1  UNL1        0.1164
     15 C         142.2676  140.8254  166.2674 C.3     1  UNL1        0.1124
     16 H         142.1300  141.1902  171.5416 H       1  UNL1        0.1465
     17 H         142.6149  139.7035  172.2215 H       1  UNL1        0.1465
     18 C         137.6935  142.9481  162.5820 C.3     1  UNL1        0.2525
     19 O         138.4588  144.1800  162.9649 O.3     1  UNL1       -0.4701
     20 N         140.7061  145.6383  161.6147 N.pl3   1  UNL1       -0.2802
     21 H         140.4974  146.5943  161.7231 H       1  UNL1        0.1552
     22 C         140.7501  145.0310  160.2438 C.ar    1  UNL1        0.2208
     23 N         141.7930  145.4735  159.2606 N.ar    1  UNL1       -0.2111
     24 C         141.8369  144.8663  157.8897 C.ar    1  UNL1        0.1147
     25 C         140.8380  143.8166  157.5020 C.ar    1  UNL1        0.0960
     26 CL        140.8819  143.2093  156.1312 Cl      1  UNL1       -0.0790
     27 C         139.7951  143.3741  158.4853 C.ar    1  UNL1        0.1138
     28 N         139.7512  143.9813  159.8561 N.ar    1  UNL1       -0.2111
     29 C         138.7961  142.3244  158.0976 C.ar    1  UNL1        0.1031
     30 C         138.6343  140.9801  158.7431 C.ar    1  UNL1        0.1196
     31 N         137.5218  140.2596  158.0407 N.ar    1  UNL1       -0.2248
     32 C         136.9961  141.1586  156.9612 C.ar    1  UNL1        0.1479
     33 C         135.9020  140.9801  155.9507 C.ar    1  UNL1        0.0374
     34 C         135.5955  142.0777  154.9754 C.ar    1  UNL1        0.0046
     35 C         136.3831  143.3538  155.0106 C.ar    1  UNL1        0.0191
     36 C         137.4772  143.5323  156.0210 C.ar    1  UNL1        0.0815
     37 N         137.7837  142.4347  156.9963 N.ar    1  UNL1       -0.2874
@<TRIPOS>BOND
     1    18    19    1
     2    19     1    1
     3     1     2   ar
     4     2     3   ar
     5     3     7    1
     6     7     8    1
     7     8     9    1
     8     9    10    1
     9    10    11   am
    10    11    12   am
    11    11    13    2
    12    10    14    1
    13    14    15    1
    14     3     4   ar
    15     4     5   ar
    16     5     6   ar
    17     6    20    1
    18    20    22    1
    19    22    23   ar
    20    23    24   ar
    21    24    25   ar
    22    25    26    1
    23    25    27   ar
    24    27    29    1
    25    29    30   ar
    26    30    31   ar
    27    31    32   ar
    28    32    33   ar
    29    33    34   ar
    30    34    35   ar
    31    35    36   ar
    32    36    37   ar
    33    27    28   ar
    34     6     1   ar
    35    28    22   ar
    36    15     7    1
    37    37    29   ar
    38    37    32   ar
    39    12    16    1
    40    12    17    1
    41    20    21    1
