@<TRIPOS>MOLECULE
*****
 30 33 0 0 0
SMALL
GASTEIGER

@<TRIPOS>ATOM
      1 C         142.3288  139.2394  169.1697 C.ar    1  UNL1        0.1587
      2 C         141.5063  139.7507  170.3151 C.ar    1  UNL1        0.0384
      3 C         140.6597  140.9768  170.1421 C.ar    1  UNL1        0.0063
      4 C         140.6354  141.6915  168.8235 C.ar    1  UNL1        0.0385
      5 C         141.4578  141.1801  167.6781 C.ar    1  UNL1        0.1589
      6 C         142.3045  139.9541  167.8512 C.ar    1  UNL1        0.1732
      7 S         143.1270  139.4427  166.7056 S.O2    1  UNL1        0.0166
      8 O         144.0718  138.5790  165.9238 O.2     1  UNL1       -0.1684
      9 O         143.4793  138.4280  167.7527 O.2     1  UNL1       -0.1684
     10 C         143.1027  140.1574  165.3871 C.3     1  UNL1        0.1781
     11 C         143.9252  139.6461  164.2416 C.3     1  UNL1        0.0300
     12 C         142.2560  141.3835  165.2140 C.3     1  UNL1        0.2102
     13 O         141.4336  141.8948  166.3595 O.3     1  UNL1       -0.4716
     14 C         142.2318  142.0982  163.8954 C.ar    1  UNL1        0.0191
     15 C         141.2833  141.6569  162.8204 C.ar    1  UNL1        0.0023
     16 C         141.2591  142.3716  161.5019 C.ar    1  UNL1        0.0367
     17 C         142.1834  143.5276  161.2583 C.ar    1  UNL1        0.1385
     18 C         143.1319  143.9689  162.3333 C.ar    1  UNL1        0.0367
     19 C         143.1561  143.2542  163.6518 C.ar    1  UNL1        0.0023
     20 O         142.1592  144.2423  159.9397 O.3     1  UNL1       -0.4754
     21 C         141.2827  145.4454  159.7547 C.3     1  UNL1        0.2068
     22 C         139.9282  145.4924  160.3974 C.3     1  UNL1        0.0646
     23 C         139.7744  146.0451  161.7834 C.3     1  UNL1        0.0759
     24 N         139.2851  145.1623  162.8929 N.3     1  UNL1       -0.2726
     25 C         138.0637  144.2923  162.8540 C.3     1  UNL1        0.0721
     26 C         137.9550  143.5867  164.1732 C.3     1  UNL1        0.0188
     27 C         139.1093  144.0205  165.0274 C.3     1  UNL1        0.0188
     28 C         139.9313  144.9943  164.2361 C.3     1  UNL1        0.0721
     29 C         143.3863  137.4344  170.7104 C.3     1  UNL1        0.2525
     30 O         143.1754  138.0133  169.3428 O.3     1  UNL1       -0.4700
@<TRIPOS>BOND
     1    29    30    1
     2    30     1    1
     3     1     2   ar
     4     2     3   ar
     5     3     4   ar
     6     4     5   ar
     7     5     6   ar
     8     6     7    1
     9     7     8    2
    10     7     9    2
    11     7    10    1
    12    10    11    1
    13    10    12    1
    14    12    14    1
    15    14    15   ar
    16    15    16   ar
    17    16    17   ar
    18    17    20    1
    19    20    21    1
    20    21    22    1
    21    22    23    1
    22    23    24    1
    23    24    25    1
    24    25    26    1
    25    26    27    1
    26    27    28    1
    27    17    18   ar
    28    18    19   ar
    29    12    13    1
    30     6     1   ar
    31    19    14   ar
    32    13     5    1
    33    28    24    1
@<TRIPOS>MOLECULE
*****
 30 33 0 0 0
SMALL
GASTEIGER

@<TRIPOS>ATOM
      1 C         141.3871  140.5277  169.2167 C.ar    1  UNL1        0.1587
      2 C         142.6061  141.1696  169.8100 C.ar    1  UNL1        0.0384
      3 C         143.4032  142.1527  169.0048 C.ar    1  UNL1        0.0063
      4 C         142.9813  142.4938  167.6064 C.ar    1  UNL1        0.0385
      5 C         141.7624  141.8519  167.0131 C.ar    1  UNL1        0.1589
      6 C         140.9653  140.8688  167.8183 C.ar    1  UNL1        0.1732
      7 S         139.7462  140.2269  167.2249 S.O2    1  UNL1        0.0166
      8 O         138.5267  139.3622  167.1025 O.2     1  UNL1       -0.1684
      9 O         139.7446  139.5854  168.5808 O.2     1  UNL1       -0.1684
     10 C         139.3244  140.5681  165.8265 C.3     1  UNL1        0.1781
     11 C         138.1054  139.9262  165.2331 C.3     1  UNL1        0.0300
     12 C         140.1215  141.5512  165.0214 C.3     1  UNL1        0.2102
     13 O         141.3404  142.1931  165.6147 O.3     1  UNL1       -0.4716
     14 C         139.6996  141.8923  163.6229 C.ar    1  UNL1        0.0191
     15 C         140.4074  141.2738  162.4540 C.ar    1  UNL1        0.0023
     16 C         139.9855  141.6150  161.0556 C.ar    1  UNL1        0.0367
     17 C         138.8557  142.5746  160.8261 C.ar    1  UNL1        0.1385
     18 C         138.1478  143.1931  161.9950 C.ar    1  UNL1        0.0367
     19 C         138.5698  142.8520  163.3934 C.ar    1  UNL1        0.0023
     20 O         138.4338  142.9158  159.4276 O.3     1  UNL1       -0.4754
     21 C         139.4244  143.5058  158.4682 C.3     1  UNL1        0.2068
     22 C         140.1485  144.7711  158.8215 C.3     1  UNL1        0.0646
     23 C         141.5309  144.7075  159.4004 C.3     1  UNL1        0.0759
     24 N         141.7234  144.7394  160.8876 N.3     1  UNL1       -0.2726
     25 C         140.8754  145.4910  161.8705 C.3     1  UNL1        0.0721
     26 C         141.4255  145.2414  163.2434 C.3     1  UNL1        0.0188
     27 C         142.6136  144.3356  163.1090 C.3     1  UNL1        0.0188
     28 C         142.7976  144.0253  161.6531 C.3     1  UNL1        0.0721
     29 C         140.3221  139.8069  171.4741 C.3     1  UNL1        0.2525
     30 O         140.5900  139.5446  170.0218 O.3     1  UNL1       -0.4700
@<TRIPOS>BOND
     1    29    30    1
     2    30     1    1
     3     1     2   ar
     4     2     3   ar
     5     3     4   ar
     6     4     5   ar
     7     5     6   ar
     8     6     7    1
     9     7     8    2
    10     7     9    2
    11     7    10    1
    12    10    11    1
    13    10    12    1
    14    12    14    1
    15    14    15   ar
    16    15    16   ar
    17    16    17   ar
    18    17    20    1
    19    20    21    1
    20    21    22    1
    21    22    23    1
    22    23    24    1
    23    24    25    1
    24    25    26    1
    25    26    27    1
    26    27    28    1
    27    17    18   ar
    28    18    19   ar
    29    12    13    1
    30     6     1   ar
    31    19    14   ar
    32    13     5    1
    33    28    24    1
@<TRIPOS>MOLECULE
*****
 30 33 0 0 0
SMALL
GASTEIGER

@<TRIPOS>ATOM
      1 C         141.3224  144.8297  158.9856 C.ar    1  UNL1        0.1587
      2 C         142.4298  144.3236  158.1096 C.ar    1  UNL1        0.0384
      3 C         143.3275  143.2244  158.5954 C.ar    1  UNL1        0.0063
      4 C         143.1178  142.6314  159.9571 C.ar    1  UNL1        0.0385
      5 C         142.0103  143.1375  160.8330 C.ar    1  UNL1        0.1589
      6 C         141.1126  144.2367  160.3473 C.ar    1  UNL1        0.1732
      7 S         140.0052  144.7428  161.2234 S.O2    1  UNL1        0.0166
      8 O         138.8286  145.5526  161.6817 O.2     1  UNL1       -0.1684
      9 O         139.8063  145.6171  160.0208 O.2     1  UNL1       -0.1684
     10 C         139.7954  144.1498  162.5851 C.3     1  UNL1        0.1781
     11 C         138.6880  144.6560  163.4611 C.3     1  UNL1        0.0300
     12 C         140.6931  143.0506  163.0708 C.3     1  UNL1        0.2102
     13 O         141.8006  142.5445  162.1948 O.3     1  UNL1       -0.4716
     14 C         140.4834  142.4576  164.4326 C.ar    1  UNL1        0.0191
     15 C         139.7604  141.1515  164.5786 C.ar    1  UNL1        0.0023
     16 C         139.5507  140.5585  165.9403 C.ar    1  UNL1        0.0367
     17 C         140.0639  141.2717  167.1560 C.ar    1  UNL1        0.1385
     18 C         140.7868  142.5778  167.0101 C.ar    1  UNL1        0.0367
     19 C         140.9966  143.1708  165.6483 C.ar    1  UNL1        0.0023
     20 O         139.8541  140.6787  168.5178 O.3     1  UNL1       -0.4754
     21 C         141.0145  140.0966  169.2693 C.3     1  UNL1        0.2068
     22 C         142.3889  140.1298  168.6695 C.3     1  UNL1        0.0646
     23 C         142.8564  138.9984  167.8025 C.3     1  UNL1        0.0759
     24 N         142.9157  139.1697  166.3135 N.3     1  UNL1       -0.2726
     25 C         142.4535  138.1729  165.2922 C.3     1  UNL1        0.0721
     26 C         142.6998  138.7549  163.9319 C.3     1  UNL1        0.0188
     27 C         143.3143  140.1114  164.1124 C.3     1  UNL1        0.0188
     28 C         143.4477  140.3677  165.5843 C.3     1  UNL1        0.0721
     29 C         140.3463  146.2410  157.0348 C.3     1  UNL1        0.2525
     30 O         140.4247  145.9289  158.4999 O.3     1  UNL1       -0.4700
@<TRIPOS>BOND
     1    29    30    1
     2    30     1    1
     3     1     2   ar
     4     2     3   ar
     5     3     4   ar
     6     4     5   ar
     7     5     6   ar
     8     6     7    1
     9     7     8    2
    10     7     9    2
    11     7    10    1
    12    10    11    1
    13    10    12    1
    14    12    14    1
    15    14    15   ar
    16    15    16   ar
    17    16    17   ar
    18    17    20    1
    19    20    21    1
    20    21    22    1
    21    22    23    1
    22    23    24    1
    23    24    25    1
    24    25    26    1
    25    26    27    1
    26    27    28    1
    27    17    18   ar
    28    18    19   ar
    29    12    13    1
    30     6     1   ar
    31    19    14   ar
    32    13     5    1
    33    28    24    1
@<TRIPOS>MOLECULE
*****
 30 33 0 0 0
SMALL
GASTEIGER

@<TRIPOS>ATOM
      1 C         139.3206  140.4210  168.8702 C.ar    1  UNL1        0.1587
      2 C         139.9243  141.3798  169.8532 C.ar    1  UNL1        0.0384
      3 C         140.9905  142.3370  169.4092 C.ar    1  UNL1        0.0063
      4 C         141.4530  142.3353  167.9824 C.ar    1  UNL1        0.0385
      5 C         140.8494  141.3765  166.9994 C.ar    1  UNL1        0.1589
      6 C         139.7831  140.4194  167.4434 C.ar    1  UNL1        0.1732
      7 S         139.1794  139.4605  166.4603 S.O2    1  UNL1        0.0166
      8 O         138.3103  138.3708  165.9060 O.2     1  UNL1       -0.1684
      9 O         138.4150  139.0838  167.6948 O.2     1  UNL1       -0.1684
     10 C         139.6420  139.4588  165.0335 C.3     1  UNL1        0.1781
     11 C         139.0383  138.5000  164.0504 C.3     1  UNL1        0.0300
     12 C         140.7082  140.4159  164.5895 C.3     1  UNL1        0.2102
     13 O         141.3119  141.3747  165.5725 O.3     1  UNL1       -0.4716
     14 C         141.1708  140.4142  163.1626 C.ar    1  UNL1        0.0191
     15 C         140.4375  141.2249  162.1355 C.ar    1  UNL1        0.0023
     16 C         140.9000  141.2232  160.7086 C.ar    1  UNL1        0.0367
     17 C         142.0959  140.4107  160.3089 C.ar    1  UNL1        0.1385
     18 C         142.8292  139.6000  161.3359 C.ar    1  UNL1        0.0367
     19 C         142.3667  139.6018  162.7628 C.ar    1  UNL1        0.0023
     20 O         142.5585  140.4090  158.8819 O.3     1  UNL1       -0.4754
     21 C         143.7180  141.2659  158.4683 C.3     1  UNL1        0.2068
     22 C         143.9730  142.5697  159.1648 C.3     1  UNL1        0.0646
     23 C         144.9977  142.6484  160.2575 C.3     1  UNL1        0.0759
     24 N         144.5616  142.7812  161.6865 N.3     1  UNL1       -0.2726
     25 C         145.1895  142.1011  162.8668 C.3     1  UNL1        0.0721
     26 C         144.4370  142.5170  164.0959 C.3     1  UNL1        0.0188
     27 C         143.3440  143.4543  163.6752 C.3     1  UNL1        0.0188
     28 C         143.4210  143.6175  162.1861 C.3     1  UNL1        0.0721
     29 C         137.5128  139.7086  170.5948 C.3     1  UNL1        0.2525
     30 O         138.2543  139.4639  169.3141 O.3     1  UNL1       -0.4700
@<TRIPOS>BOND
     1    29    30    1
     2    30     1    1
     3     1     2   ar
     4     2     3   ar
     5     3     4   ar
     6     4     5   ar
     7     5     6   ar
     8     6     7    1
     9     7     8    2
    10     7     9    2
    11     7    10    1
    12    10    11    1
    13    10    12    1
    14    12    14    1
    15    14    15   ar
    16    15    16   ar
    17    16    17   ar
    18    17    20    1
    19    20    21    1
    20    21    22    1
    21    22    23    1
    22    23    24    1
    23    24    25    1
    24    25    26    1
    25    26    27    1
    26    27    28    1
    27    17    18   ar
    28    18    19   ar
    29    12    13    1
    30     6     1   ar
    31    19    14   ar
    32    13     5    1
    33    28    24    1
@<TRIPOS>MOLECULE
*****
 30 33 0 0 0
SMALL
GASTEIGER

@<TRIPOS>ATOM
      1 C         141.3530  141.0271  169.0366 C.ar    1  UNL1        0.1587
      2 C         142.5671  141.8584  169.3278 C.ar    1  UNL1        0.0384
      3 C         143.4075  142.3795  168.1999 C.ar    1  UNL1        0.0063
      4 C         143.0337  142.0692  166.7807 C.ar    1  UNL1        0.0385
      5 C         141.8196  141.2380  166.4895 C.ar    1  UNL1        0.1589
      6 C         140.9792  140.7169  167.6175 C.ar    1  UNL1        0.1732
      7 S         139.7650  139.8856  167.3263 S.O2    1  UNL1        0.0166
      8 O         138.5319  139.0628  167.5556 O.2     1  UNL1       -0.1684
      9 O         139.7106  139.9101  168.8251 O.2     1  UNL1       -0.1684
     10 C         139.3913  139.5754  165.9071 C.3     1  UNL1        0.1781
     11 C         138.1771  138.7441  165.6159 C.3     1  UNL1        0.0300
     12 C         140.2316  140.0965  164.7792 C.3     1  UNL1        0.2102
     13 O         141.4458  140.9277  165.0703 O.3     1  UNL1       -0.4716
     14 C         139.8578  139.7862  163.3599 C.ar    1  UNL1        0.0191
     15 C         139.9820  138.3844  162.8410 C.ar    1  UNL1        0.0023
     16 C         139.6082  138.0742  161.4218 C.ar    1  UNL1        0.0367
     17 C         139.1102  139.1658  160.5217 C.ar    1  UNL1        0.1385
     18 C         138.9860  140.5677  161.0406 C.ar    1  UNL1        0.0367
     19 C         139.3598  140.8778  162.4598 C.ar    1  UNL1        0.0023
     20 O         138.7363  138.8556  159.1025 O.3     1  UNL1       -0.4754
     21 C         139.6961  139.1593  157.9905 C.3     1  UNL1        0.2068
     22 C         141.1097  138.6627  158.0633 C.3     1  UNL1        0.0646
     23 C         142.1858  139.5430  158.6265 C.3     1  UNL1        0.0759
     24 N         142.7356  139.2728  159.9957 N.3     1  UNL1       -0.2726
     25 C         142.8654  140.2723  161.1067 C.3     1  UNL1        0.0721
     26 C         143.4622  139.5729  162.2920 C.3     1  UNL1        0.0188
     27 C         143.7013  138.1413  161.9134 C.3     1  UNL1        0.0188
     28 C         143.2522  137.9558  160.4943 C.3     1  UNL1        0.0721
     29 C         140.8203  140.9076  171.5767 C.3     1  UNL1        0.2525
     30 O         140.5126  140.5061  170.1646 O.3     1  UNL1       -0.4700
@<TRIPOS>BOND
     1    29    30    1
     2    30     1    1
     3     1     2   ar
     4     2     3   ar
     5     3     4   ar
     6     4     5   ar
     7     5     6   ar
     8     6     7    1
     9     7     8    2
    10     7     9    2
    11     7    10    1
    12    10    11    1
    13    10    12    1
    14    12    14    1
    15    14    15   ar
    16    15    16   ar
    17    16    17   ar
    18    17    20    1
    19    20    21    1
    20    21    22    1
    21    22    23    1
    22    23    24    1
    23    24    25    1
    24    25    26    1
    25    26    27    1
    26    27    28    1
    27    17    18   ar
    28    18    19   ar
    29    12    13    1
    30     6     1   ar
    31    19    14   ar
    32    13     5    1
    33    28    24    1
@<TRIPOS>MOLECULE
*****
 30 33 0 0 0
SMALL
GASTEIGER

@<TRIPOS>ATOM
      1 C         140.4123  140.6656  168.2544 C.ar    1  UNL1        0.1587
      2 C         141.1869  141.6447  169.0858 C.ar    1  UNL1        0.0384
      3 C         142.3987  142.3198  168.5150 C.ar    1  UNL1        0.0063
      4 C         142.8360  142.0157  167.1128 C.ar    1  UNL1        0.0385
      5 C         142.0614  141.0366  166.2814 C.ar    1  UNL1        0.1589
      6 C         140.8496  140.3615  166.8522 C.ar    1  UNL1        0.1732
      7 S         140.0750  139.3824  166.0207 S.O2    1  UNL1        0.0166
      8 O         139.0215  138.3890  165.6290 O.2     1  UNL1       -0.1684
      9 O         139.2719  139.3415  167.2869 O.2     1  UNL1       -0.1684
     10 C         140.5123  139.0783  164.6184 C.3     1  UNL1        0.1781
     11 C         139.7377  138.0991  163.7869 C.3     1  UNL1        0.0300
     12 C         141.7241  139.7533  164.0476 C.3     1  UNL1        0.2102
     13 O         142.4986  140.7325  164.8791 O.3     1  UNL1       -0.4716
     14 C         142.1613  139.4492  162.6453 C.ar    1  UNL1        0.0191
     15 C         143.2019  138.3981  162.3954 C.ar    1  UNL1        0.0023
     16 C         143.6390  138.0941  160.9932 C.ar    1  UNL1        0.0367
     17 C         143.0357  138.8411  159.8408 C.ar    1  UNL1        0.1385
     18 C         141.9952  139.8921  160.0907 C.ar    1  UNL1        0.0367
     19 C         141.5580  140.1962  161.4929 C.ar    1  UNL1        0.0023
     20 O         143.4729  138.5369  158.4385 O.3     1  UNL1       -0.4754
     21 C         142.7462  137.5000  157.6345 C.3     1  UNL1        0.2068
     22 C         143.0995  137.2854  156.1926 C.3     1  UNL1        0.0646
     23 C         143.9261  136.0997  155.7914 C.3     1  UNL1        0.0759
     24 N         143.4189  134.7112  156.0460 N.3     1  UNL1       -0.2726
     25 C         142.3675  133.9967  155.2496 C.3     1  UNL1        0.0721
     26 C         142.1729  132.6373  155.8531 C.3     1  UNL1        0.0188
     27 C         143.1041  132.5117  157.0224 C.3     1  UNL1        0.0188
     28 C         143.8741  133.7934  157.1416 C.3     1  UNL1        0.0721
     29 C         138.7490  140.3130  170.2188 C.3     1  UNL1        0.2525
     30 O         139.2005  139.9906  168.8252 O.3     1  UNL1       -0.4700
@<TRIPOS>BOND
     1    29    30    1
     2    30     1    1
     3     1     2   ar
     4     2     3   ar
     5     3     4   ar
     6     4     5   ar
     7     5     6   ar
     8     6     7    1
     9     7     8    2
    10     7     9    2
    11     7    10    1
    12    10    11    1
    13    10    12    1
    14    12    14    1
    15    14    15   ar
    16    15    16   ar
    17    16    17   ar
    18    17    20    1
    19    20    21    1
    20    21    22    1
    21    22    23    1
    22    23    24    1
    23    24    25    1
    24    25    26    1
    25    26    27    1
    26    27    28    1
    27    17    18   ar
    28    18    19   ar
    29    12    13    1
    30     6     1   ar
    31    19    14   ar
    32    13     5    1
    33    28    24    1
@<TRIPOS>MOLECULE
*****
 30 33 0 0 0
SMALL
GASTEIGER

@<TRIPOS>ATOM
      1 C         140.7545  141.1510  168.8164 C.ar    1  UNL1        0.1587
      2 C         139.5135  140.3550  169.0928 C.ar    1  UNL1        0.0384
      3 C         138.7972  139.6681  167.9681 C.ar    1  UNL1        0.0063
      4 C         139.3218  139.7771  166.5671 C.ar    1  UNL1        0.0385
      5 C         140.5627  140.5730  166.2908 C.ar    1  UNL1        0.1589
      6 C         141.2791  141.2600  167.4154 C.ar    1  UNL1        0.1732
      7 S         142.5201  142.0560  167.1391 S.O2    1  UNL1        0.0166
      8 O         143.7241  142.9182  167.3782 O.2     1  UNL1       -0.1684
      9 O         142.4136  142.2464  168.6232 O.2     1  UNL1       -0.1684
     10 C         143.0447  142.1650  165.7381 C.3     1  UNL1        0.1781
     11 C         144.2857  142.9611  165.4617 C.3     1  UNL1        0.0300
     12 C         142.3284  141.4781  164.6134 C.3     1  UNL1        0.2102
     13 O         141.0874  140.6821  164.8897 O.3     1  UNL1       -0.4716
     14 C         142.8531  141.5871  163.2123 C.ar    1  UNL1        0.0191
     15 C         143.9684  140.6933  162.7575 C.ar    1  UNL1        0.0023
     16 C         144.4931  140.8024  161.3565 C.ar    1  UNL1        0.0367
     17 C         143.9023  141.8053  160.4103 C.ar    1  UNL1        0.1385
     18 C         142.7869  142.6991  160.8652 C.ar    1  UNL1        0.0367
     19 C         142.2623  142.5900  162.2662 C.ar    1  UNL1        0.0023
     20 O         144.4270  141.9143  159.0093 O.3     1  UNL1       -0.4754
     21 C         144.1978  140.7983  158.0336 C.3     1  UNL1        0.2068
     22 C         142.8729  140.0961  157.9950 C.3     1  UNL1        0.0646
     23 C         142.7102  138.7641  158.6653 C.3     1  UNL1        0.0759
     24 N         142.0134  138.6713  159.9903 N.3     1  UNL1       -0.2726
     25 C         140.8386  139.4947  160.4282 C.3     1  UNL1        0.0721
     26 C         140.4681  139.0712  161.8186 C.3     1  UNL1        0.0188
     27 C         141.4140  137.9859  162.2401 C.3     1  UNL1        0.0188
     28 C         142.3690  137.7388  161.1101 C.3     1  UNL1        0.0721
     29 C         141.2485  141.3914  171.3557 C.3     1  UNL1        0.2525
     30 O         141.4708  141.8380  169.9411 O.3     1  UNL1       -0.4700
@<TRIPOS>BOND
     1    29    30    1
     2    30     1    1
     3     1     2   ar
     4     2     3   ar
     5     3     4   ar
     6     4     5   ar
     7     5     6   ar
     8     6     7    1
     9     7     8    2
    10     7     9    2
    11     7    10    1
    12    10    11    1
    13    10    12    1
    14    12    14    1
    15    14    15   ar
    16    15    16   ar
    17    16    17   ar
    18    17    20    1
    19    20    21    1
    20    21    22    1
    21    22    23    1
    22    23    24    1
    23    24    25    1
    24    25    26    1
    25    26    27    1
    26    27    28    1
    27    17    18   ar
    28    18    19   ar
    29    12    13    1
    30     6     1   ar
    31    19    14   ar
    32    13     5    1
    33    28    24    1
@<TRIPOS>MOLECULE
*****
 30 33 0 0 0
SMALL
GASTEIGER

@<TRIPOS>ATOM
      1 C         137.4527  138.8980  169.4955 C.ar    1  UNL1        0.1587
      2 C         136.6841  137.7775  168.8601 C.ar    1  UNL1        0.0384
      3 C         136.8865  137.4577  167.4086 C.ar    1  UNL1        0.0063
      4 C         137.8574  138.2584  166.5925 C.ar    1  UNL1        0.0385
      5 C         138.6260  139.3789  167.2279 C.ar    1  UNL1        0.1589
      6 C         138.4236  139.6987  168.6794 C.ar    1  UNL1        0.1732
      7 S         139.1922  140.8193  169.3147 S.O2    1  UNL1        0.0166
      8 O         139.6828  141.7773  170.3596 O.2     1  UNL1       -0.1684
      9 O         138.3916  140.3512  170.4937 O.2     1  UNL1       -0.1684
     10 C         140.1632  141.6200  168.4986 C.3     1  UNL1        0.1781
     11 C         140.9318  142.7406  169.1340 C.3     1  UNL1        0.0300
     12 C         140.3655  141.3002  167.0472 C.3     1  UNL1        0.2102
     13 O         139.5970  140.1797  166.4118 O.3     1  UNL1       -0.4716
     14 C         141.3365  142.1010  166.2310 C.ar    1  UNL1        0.0191
     15 C         140.8331  143.1356  165.2687 C.ar    1  UNL1        0.0023
     16 C         141.8041  143.9363  164.4526 C.ar    1  UNL1        0.0367
     17 C         143.2785  143.7024  164.5990 C.ar    1  UNL1        0.1385
     18 C         143.7819  142.6679  165.5613 C.ar    1  UNL1        0.0367
     19 C         142.8110  141.8672  166.3774 C.ar    1  UNL1        0.0023
     20 O         144.2495  144.5032  163.7828 O.3     1  UNL1       -0.4754
     21 C         144.6601  144.0237  162.4222 C.3     1  UNL1        0.2068
     22 C         143.8247  143.0073  161.7016 C.3     1  UNL1        0.0646
     23 C         144.2483  141.5685  161.6786 C.3     1  UNL1        0.0759
     24 N         143.6084  140.5833  162.6111 N.3     1  UNL1       -0.2726
     25 C         144.3288  139.5930  163.4775 C.3     1  UNL1        0.0721
     26 C         143.3013  138.8130  164.2429 C.3     1  UNL1        0.0188
     27 C         141.9459  139.3212  163.8495 C.3     1  UNL1        0.0188
     28 C         142.1357  140.4152  162.8411 C.3     1  UNL1        0.0721
     29 C         136.0958  138.6176  171.6933 C.3     1  UNL1        0.2525
     30 O         137.2503  139.2178  170.9470 O.3     1  UNL1       -0.4700
@<TRIPOS>BOND
     1    29    30    1
     2    30     1    1
     3     1     2   ar
     4     2     3   ar
     5     3     4   ar
     6     4     5   ar
     7     5     6   ar
     8     6     7    1
     9     7     8    2
    10     7     9    2
    11     7    10    1
    12    10    11    1
    13    10    12    1
    14    12    14    1
    15    14    15   ar
    16    15    16   ar
    17    16    17   ar
    18    17    20    1
    19    20    21    1
    20    21    22    1
    21    22    23    1
    22    23    24    1
    23    24    25    1
    24    25    26    1
    25    26    27    1
    26    27    28    1
    27    17    18   ar
    28    18    19   ar
    29    12    13    1
    30     6     1   ar
    31    19    14   ar
    32    13     5    1
    33    28    24    1
@<TRIPOS>MOLECULE
*****
 30 33 0 0 0
SMALL
GASTEIGER

@<TRIPOS>ATOM
      1 C         142.1316  140.8229  168.9071 C.ar    1  UNL1        0.1587
      2 C         141.5312  141.9507  169.6929 C.ar    1  UNL1        0.0384
      3 C         140.6767  142.9732  169.0041 C.ar    1  UNL1        0.0063
      4 C         140.4225  142.8678  167.5296 C.ar    1  UNL1        0.0385
      5 C         141.0230  141.7400  166.7439 C.ar    1  UNL1        0.1589
      6 C         141.8775  140.7175  167.4326 C.ar    1  UNL1        0.1732
      7 S         142.4779  139.5897  166.6468 S.O2    1  UNL1        0.0166
      8 O         143.2611  138.3487  166.3356 O.2     1  UNL1       -0.1684
      9 O         143.0040  139.2641  168.0133 O.2     1  UNL1       -0.1684
     10 C         142.2238  139.4843  165.1723 C.3     1  UNL1        0.1781
     11 C         142.8242  138.3564  164.3864 C.3     1  UNL1        0.0300
     12 C         141.3693  140.5067  164.4835 C.3     1  UNL1        0.2102
     13 O         140.7689  141.6345  165.2692 O.3     1  UNL1       -0.4716
     14 C         141.1152  140.4013  163.0089 C.ar    1  UNL1        0.0191
     15 C         139.9378  139.6205  162.5046 C.ar    1  UNL1        0.0023
     16 C         139.6838  139.5151  161.0301 C.ar    1  UNL1        0.0367
     17 C         140.6071  140.1904  160.0598 C.ar    1  UNL1        0.1385
     18 C         141.7844  140.9712  160.5640 C.ar    1  UNL1        0.0367
     19 C         142.0384  141.0766  162.0386 C.ar    1  UNL1        0.0023
     20 O         140.3530  140.0850  158.5852 O.3     1  UNL1       -0.4754
     21 C         139.8307  141.2695  157.8276 C.3     1  UNL1        0.2068
     22 C         138.8101  142.1713  158.4561 C.3     1  UNL1        0.0646
     23 C         139.2497  143.3953  159.2037 C.3     1  UNL1        0.0759
     24 N         139.0916  143.4611  160.6939 N.3     1  UNL1       -0.2726
     25 C         139.9440  144.2577  161.6366 C.3     1  UNL1        0.0721
     26 C         139.4326  144.0308  163.0284 C.3     1  UNL1        0.0188
     27 C         138.2641  143.0938  162.9457 C.3     1  UNL1        0.0188
     28 C         138.0534  142.7417  161.5029 C.3     1  UNL1        0.0721
     29 C         143.2939  139.9417  171.0572 C.3     1  UNL1        0.2525
     30 O         142.9861  139.8005  169.5959 O.3     1  UNL1       -0.4700
@<TRIPOS>BOND
     1    29    30    1
     2    30     1    1
     3     1     2   ar
     4     2     3   ar
     5     3     4   ar
     6     4     5   ar
     7     5     6   ar
     8     6     7    1
     9     7     8    2
    10     7     9    2
    11     7    10    1
    12    10    11    1
    13    10    12    1
    14    12    14    1
    15    14    15   ar
    16    15    16   ar
    17    16    17   ar
    18    17    20    1
    19    20    21    1
    20    21    22    1
    21    22    23    1
    22    23    24    1
    23    24    25    1
    24    25    26    1
    25    26    27    1
    26    27    28    1
    27    17    18   ar
    28    18    19   ar
    29    12    13    1
    30     6     1   ar
    31    19    14   ar
    32    13     5    1
    33    28    24    1
