@<TRIPOS>MOLECULE
*****
 35 38 0 0 0
SMALL
GASTEIGER

@<TRIPOS>ATOM
      1 C         141.6930  140.5665  160.3344 C.3     1  UNL1        0.0393
      2 C         141.8314  140.1345  158.9047 C.3     1  UNL1        0.0072
      3 C         140.8074  139.2248  158.2935 C.3     1  UNL1        0.0177
      4 C         139.6448  138.7469  159.1121 C.3     1  UNL1        0.0724
      5 N         139.5062  139.1789  160.5418 N.3     1  UNL1       -0.2686
      6 C         140.5303  140.0886  161.1530 C.3     1  UNL1        0.0767
      7 C         142.9672  142.9050  160.5636 C.2     1  UNL1        0.0540
      8 N         144.0756  143.4287  161.4281 N.2     1  UNL1       -0.2503
      9 C         144.5104  142.3236  162.3444 C.2     1  UNL1        0.0770
     10 C         145.5623  142.2603  163.4118 C.2     1  UNL1        0.0184
     11 C         145.7747  140.9902  164.1810 C.2     1  UNL1       -0.0027
     12 C         144.9351  139.7834  163.8829 C.2     1  UNL1       -0.0213
     13 C         143.8831  139.8468  162.8155 C.3     1  UNL1        0.0535
     14 C         143.6708  141.1169  162.0463 C.2     1  UNL1       -0.0030
     15 C         142.7171  141.4763  160.9457 C.2     1  UNL1       -0.0098
     16 C         143.3146  143.3365  158.5159 C.3     1  UNL1        0.0059
     17 C         142.2373  143.6749  159.5032 C.3     1  UNL1        0.0352
     18 C         141.1599  144.0133  160.4905 C.3     1  UNL1        0.0059
     19 C         141.5073  144.4448  158.4428 C.3     1  UNL1        0.0059
     20 C         138.3437  138.7011  161.3604 C.3     1  UNL1        0.1000
     21 C         138.3821  138.8150  162.8556 C.ar    1  UNL1        0.0045
     22 C         138.8620  137.6601  163.6837 C.ar    1  UNL1       -0.0021
     23 C         138.9004  137.7741  165.1789 C.ar    1  UNL1       -0.0002
     24 C         138.4589  139.0430  165.8460 C.ar    1  UNL1        0.0010
     25 C         137.9790  140.1979  165.0179 C.ar    1  UNL1        0.0111
     26 C         137.9406  140.0840  163.5227 C.ar    1  UNL1        0.0550
     27 CL        137.4606  141.2389  162.6946 Cl      1  UNL1       -0.0825
     28 C         138.4973  139.1569  167.3412 C.2     1  UNL1        0.0047
     29 C         139.4577  140.1045  167.9966 C.2     1  UNL1        0.0598
     30 C         139.4962  140.2185  169.4918 C.2     1  UNL1        0.2679
     31 O         138.2580  139.9542  170.2962 O.2     1  UNL1       -0.2681
     32 N         140.7728  140.5967  170.1826 N.am    1  UNL1       -0.1934
     33 O         140.8112  140.7107  171.6778 O.3     1  UNL1       -0.2949
     34 H         141.5854  140.7702  169.6547 H       1  UNL1        0.1825
     35 H         139.9342  140.5091  172.0401 H       1  UNL1        0.2414
@<TRIPOS>BOND
     1    16    17    1
     2    17    18    1
     3    17    19    1
     4    17     7    1
     5     7     8    2
     6     8     9    1
     7     9    10    2
     8    10    11    1
     9    11    12    2
    10    12    13    1
    11    13    14    1
    12    14    15    2
    13    15     1    1
    14     1     2    1
    15     2     3    1
    16     3     4    1
    17     4     5    1
    18     5    20    1
    19    20    21    1
    20    21    22   ar
    21    22    23   ar
    22    23    24   ar
    23    24    28    1
    24    28    29    2
    25    29    30    1
    26    30    31    2
    27    30    32   am
    28    32    33    1
    29    24    25   ar
    30    25    26   ar
    31    26    27    1
    32     5     6    1
    33    15     7    1
    34     6     1    1
    35    14     9    1
    36    26    21   ar
    37    32    34    1
    38    33    35    1
@<TRIPOS>MOLECULE
*****
 35 38 0 0 0
SMALL
GASTEIGER

@<TRIPOS>ATOM
      1 C         142.5133  140.3142  165.5263 C.3     1  UNL1        0.0393
      2 C         143.3451  139.1239  165.1507 C.3     1  UNL1        0.0072
      3 C         144.4386  139.2638  164.1335 C.3     1  UNL1        0.0177
      4 C         144.7003  140.5941  163.4918 C.3     1  UNL1        0.0724
      5 N         143.8685  141.7845  163.8674 N.3     1  UNL1       -0.2686
      6 C         142.7750  141.6446  164.8846 C.3     1  UNL1        0.0767
      7 C         139.9966  139.7936  166.2613 C.2     1  UNL1        0.0540
      8 N         139.2548  139.7746  167.5649 N.2     1  UNL1       -0.2503
      9 C         140.2195  140.1435  168.6527 C.2     1  UNL1        0.0770
     10 C         140.0524  140.2863  170.1364 C.2     1  UNL1        0.0184
     11 C         141.2234  140.6762  170.9889 C.2     1  UNL1       -0.0027
     12 C         142.5614  140.9232  170.3576 C.2     1  UNL1       -0.0213
     13 C         142.7285  140.7804  168.8739 C.3     1  UNL1        0.0535
     14 C         141.5576  140.3905  168.0214 C.2     1  UNL1       -0.0030
     15 C         141.4198  140.1743  166.5435 C.2     1  UNL1       -0.0098
     16 C         139.7792  138.0409  165.0864 C.3     1  UNL1        0.0059
     17 C         139.4170  139.4861  164.9124 C.3     1  UNL1        0.0352
     18 C         139.0548  140.9312  164.7385 C.3     1  UNL1        0.0059
     19 C         138.8374  139.1785  163.5636 C.3     1  UNL1        0.0059
     20 C         144.1302  143.1149  163.2258 C.3     1  UNL1        0.1000
     21 C         143.1894  143.6428  162.1836 C.ar    1  UNL1        0.0045
     22 C         143.3025  143.1724  160.7637 C.ar    1  UNL1       -0.0021
     23 C         142.3617  143.7004  159.7215 C.ar    1  UNL1       -0.0002
     24 C         141.3077  144.6987  160.0992 C.ar    1  UNL1        0.0010
     25 C         141.1946  145.1691  161.5190 C.ar    1  UNL1        0.0111
     26 C         142.1354  144.6411  162.5612 C.ar    1  UNL1        0.0550
     27 CL        142.0222  145.1115  163.9811 Cl      1  UNL1       -0.0825
     28 C         140.3669  145.2267  159.0570 C.2     1  UNL1        0.0047
     29 C         140.9028  145.7358  157.7518 C.2     1  UNL1        0.0598
     30 C         139.9621  146.2637  156.7095 C.2     1  UNL1        0.2679
     31 O         139.6739  145.4540  155.4802 O.2     1  UNL1       -0.2681
     32 N         139.3096  147.6013  156.8965 N.am    1  UNL1       -0.1934
     33 O         138.3689  148.1292  155.8541 O.3     1  UNL1       -0.2949
     34 H         139.4988  148.1328  157.7033 H       1  UNL1        0.1825
     35 H         138.2944  147.4871  155.1309 H       1  UNL1        0.2414
@<TRIPOS>BOND
     1    16    17    1
     2    17    18    1
     3    17    19    1
     4    17     7    1
     5     7     8    2
     6     8     9    1
     7     9    10    2
     8    10    11    1
     9    11    12    2
    10    12    13    1
    11    13    14    1
    12    14    15    2
    13    15     1    1
    14     1     2    1
    15     2     3    1
    16     3     4    1
    17     4     5    1
    18     5    20    1
    19    20    21    1
    20    21    22   ar
    21    22    23   ar
    22    23    24   ar
    23    24    28    1
    24    28    29    2
    25    29    30    1
    26    30    31    2
    27    30    32   am
    28    32    33    1
    29    24    25   ar
    30    25    26   ar
    31    26    27    1
    32     5     6    1
    33    15     7    1
    34     6     1    1
    35    14     9    1
    36    26    21   ar
    37    32    34    1
    38    33    35    1
@<TRIPOS>MOLECULE
*****
 35 38 0 0 0
SMALL
GASTEIGER

@<TRIPOS>ATOM
      1 C         139.2445  140.1626  165.9022 C.3     1  UNL1        0.0393
      2 C         138.1071  139.1932  165.7738 C.3     1  UNL1        0.0072
      3 C         137.4944  138.5887  167.0023 C.3     1  UNL1        0.0177
      4 C         138.0191  138.9537  168.3593 C.3     1  UNL1        0.0724
      5 N         139.1565  139.9231  168.4878 N.3     1  UNL1       -0.2686
      6 C         139.7692  140.5276  167.2593 C.3     1  UNL1        0.0767
      7 C         140.6187  140.0282  163.6134 C.2     1  UNL1        0.0540
      8 N         141.0480  141.0211  162.5743 N.2     1  UNL1       -0.2503
      9 C         140.5519  142.3735  162.9923 C.2     1  UNL1        0.0770
     10 C         140.6752  143.7277  162.3591 C.2     1  UNL1        0.0184
     11 C         140.0625  144.9248  163.0234 C.2     1  UNL1       -0.0027
     12 C         139.3265  144.7678  164.3209 C.2     1  UNL1       -0.0213
     13 C         139.2032  143.4137  164.9542 C.3     1  UNL1        0.0535
     14 C         139.8159  142.2165  164.2898 C.2     1  UNL1       -0.0030
     15 C         139.8572  140.7671  164.6737 C.2     1  UNL1       -0.0098
     16 C         139.7358  138.3428  162.6754 C.3     1  UNL1        0.0059
     17 C         140.9012  138.5552  163.5955 C.3     1  UNL1        0.0352
     18 C         142.0667  138.7675  164.5156 C.3     1  UNL1        0.0059
     19 C         141.1838  137.0821  163.5775 C.3     1  UNL1        0.0059
     20 C         139.6813  140.2881  169.8447 C.3     1  UNL1        0.1000
     21 C         140.9599  141.0622  169.9710 C.ar    1  UNL1        0.0045
     22 C         140.9238  142.5581  170.0750 C.ar    1  UNL1       -0.0021
     23 C         142.2025  143.3322  170.2012 C.ar    1  UNL1       -0.0002
     24 C         143.5172  142.6103  170.2236 C.ar    1  UNL1        0.0010
     25 C         143.5533  141.1144  170.1196 C.ar    1  UNL1        0.0111
     26 C         142.2747  140.3403  169.9934 C.ar    1  UNL1        0.0550
     27 CL        142.3107  138.8443  169.8894 Cl      1  UNL1       -0.0825
     28 C         144.7958  143.3844  170.3498 C.2     1  UNL1        0.0047
     29 C         144.9340  144.4363  171.4102 C.2     1  UNL1        0.0598
     30 C         146.2126  145.2105  171.5365 C.2     1  UNL1        0.2679
     31 O         147.4803  144.6658  170.9482 O.2     1  UNL1       -0.2681
     32 N         146.2235  146.5292  172.2512 N.am    1  UNL1       -0.1934
     33 O         147.5021  147.3033  172.3775 O.3     1  UNL1       -0.2949
     34 H         145.3914  146.8867  172.6374 H       1  UNL1        0.1825
     35 H         148.2201  146.8142  171.9461 H       1  UNL1        0.2414
@<TRIPOS>BOND
     1    16    17    1
     2    17    18    1
     3    17    19    1
     4    17     7    1
     5     7     8    2
     6     8     9    1
     7     9    10    2
     8    10    11    1
     9    11    12    2
    10    12    13    1
    11    13    14    1
    12    14    15    2
    13    15     1    1
    14     1     2    1
    15     2     3    1
    16     3     4    1
    17     4     5    1
    18     5    20    1
    19    20    21    1
    20    21    22   ar
    21    22    23   ar
    22    23    24   ar
    23    24    28    1
    24    28    29    2
    25    29    30    1
    26    30    31    2
    27    30    32   am
    28    32    33    1
    29    24    25   ar
    30    25    26   ar
    31    26    27    1
    32     5     6    1
    33    15     7    1
    34     6     1    1
    35    14     9    1
    36    26    21   ar
    37    32    34    1
    38    33    35    1
@<TRIPOS>MOLECULE
*****
 35 38 0 0 0
SMALL
GASTEIGER

@<TRIPOS>ATOM
      1 C         140.9039  141.5917  160.2264 C.3     1  UNL1        0.0393
      2 C         140.2518  142.0144  158.9434 C.3     1  UNL1        0.0072
      3 C         138.9807  141.3559  158.4955 C.3     1  UNL1        0.0177
      4 C         138.3616  140.2746  159.3306 C.3     1  UNL1        0.0724
      5 N         139.0136  139.8518  160.6136 N.3     1  UNL1       -0.2686
      6 C         140.2847  140.5103  161.0615 C.3     1  UNL1        0.0767
      7 C         143.5244  142.0849  160.0404 C.2     1  UNL1        0.0540
      8 N         144.5032  142.9222  160.8091 N.2     1  UNL1       -0.2503
      9 C         143.7588  143.6049  161.9180 C.2     1  UNL1        0.0770
     10 C         144.2052  144.5511  162.9928 C.2     1  UNL1        0.0184
     11 C         143.2128  145.0820  163.9843 C.2     1  UNL1       -0.0027
     12 C         141.7738  144.6667  163.9010 C.2     1  UNL1       -0.0213
     13 C         141.3273  143.7205  162.8262 C.3     1  UNL1        0.0535
     14 C         142.3198  143.1896  161.8347 C.2     1  UNL1       -0.0030
     15 C         142.1750  142.2502  160.6743 C.2     1  UNL1       -0.0098
     16 C         143.8579  142.4546  157.9783 C.3     1  UNL1        0.0059
     17 C         143.8396  141.2321  158.8474 C.3     1  UNL1        0.0352
     18 C         143.8213  140.0096  159.7164 C.3     1  UNL1        0.0059
     19 C         144.1549  140.3793  157.6543 C.3     1  UNL1        0.0059
     20 C         138.3945  138.7705  161.4488 C.3     1  UNL1        0.1000
     21 C         138.4021  138.8813  162.9447 C.ar    1  UNL1        0.0045
     22 C         138.9185  137.7462  163.7782 C.ar    1  UNL1       -0.0021
     23 C         138.9260  137.8570  165.2741 C.ar    1  UNL1       -0.0002
     24 C         138.4171  139.1029  165.9365 C.ar    1  UNL1        0.0010
     25 C         137.9007  140.2380  165.1030 C.ar    1  UNL1        0.0111
     26 C         137.8931  140.1273  163.6071 C.ar    1  UNL1        0.0550
     27 CL        137.3767  141.2624  162.7735 Cl      1  UNL1       -0.0825
     28 C         138.4246  139.2137  167.4324 C.2     1  UNL1        0.0047
     29 C         139.4541  140.0637  168.1162 C.2     1  UNL1        0.0598
     30 C         139.4617  140.1746  169.6121 C.2     1  UNL1        0.2679
     31 O         138.1968  139.9522  170.3870 O.2     1  UNL1       -0.2681
     32 N         140.7342  140.5077  170.3331 N.am    1  UNL1       -0.1934
     33 O         140.7417  140.6185  171.8290 O.3     1  UNL1       -0.2949
     34 H         141.5644  140.6536  169.8245 H       1  UNL1        0.1825
     35 H         139.8501  140.4469  172.1704 H       1  UNL1        0.2414
@<TRIPOS>BOND
     1    16    17    1
     2    17    18    1
     3    17    19    1
     4    17     7    1
     5     7     8    2
     6     8     9    1
     7     9    10    2
     8    10    11    1
     9    11    12    2
    10    12    13    1
    11    13    14    1
    12    14    15    2
    13    15     1    1
    14     1     2    1
    15     2     3    1
    16     3     4    1
    17     4     5    1
    18     5    20    1
    19    20    21    1
    20    21    22   ar
    21    22    23   ar
    22    23    24   ar
    23    24    28    1
    24    28    29    2
    25    29    30    1
    26    30    31    2
    27    30    32   am
    28    32    33    1
    29    24    25   ar
    30    25    26   ar
    31    26    27    1
    32     5     6    1
    33    15     7    1
    34     6     1    1
    35    14     9    1
    36    26    21   ar
    37    32    34    1
    38    33    35    1
@<TRIPOS>MOLECULE
*****
 35 38 0 0 0
SMALL
GASTEIGER

@<TRIPOS>ATOM
      1 C         140.1945  140.9241  164.8193 C.3     1  UNL1        0.0393
      2 C         139.2342  139.9190  164.2559 C.3     1  UNL1        0.0072
      3 C         138.4507  139.0318  165.1772 C.3     1  UNL1        0.0177
      4 C         138.6274  139.1496  166.6621 C.3     1  UNL1        0.0724
      5 N         139.5877  140.1547  167.2256 N.3     1  UNL1       -0.2686
      6 C         140.3712  141.0420  166.3043 C.3     1  UNL1        0.0767
      7 C         140.4504  143.0121  163.1702 C.2     1  UNL1        0.0540
      8 N         141.5731  143.5965  162.3651 N.2     1  UNL1       -0.2503
      9 C         142.7946  142.7569  162.5955 C.2     1  UNL1        0.0770
     10 C         144.1942  142.8545  162.0649 C.2     1  UNL1        0.0184
     11 C         145.2261  141.8488  162.4818 C.2     1  UNL1       -0.0027
     12 C         144.8583  140.7455  163.4292 C.2     1  UNL1       -0.0213
     13 C         143.4587  140.6479  163.9597 C.3     1  UNL1        0.0535
     14 C         142.4268  141.6536  163.5429 C.2     1  UNL1       -0.0030
     15 C         140.9780  141.8114  163.8980 C.2     1  UNL1       -0.0098
     16 C         139.4016  144.3345  164.4552 C.3     1  UNL1        0.0059
     17 C         139.0465  143.5364  163.2358 C.3     1  UNL1        0.0352
     18 C         138.6915  142.7383  162.0164 C.3     1  UNL1        0.0059
     19 C         137.6427  144.0608  163.3014 C.3     1  UNL1        0.0059
     20 C         139.7644  140.2726  168.7104 C.3     1  UNL1        0.1000
     21 C         140.8042  141.1973  169.2708 C.ar    1  UNL1        0.0045
     22 C         140.4328  142.5988  169.6550 C.ar    1  UNL1       -0.0021
     23 C         141.4726  143.5234  170.2153 C.ar    1  UNL1       -0.0002
     24 C         142.8838  143.0465  170.3915 C.ar    1  UNL1        0.0010
     25 C         143.2552  141.6449  170.0073 C.ar    1  UNL1        0.0111
     26 C         142.2155  140.7203  169.4470 C.ar    1  UNL1        0.0550
     27 CL        142.5869  139.3187  169.0628 Cl      1  UNL1       -0.0825
     28 C         143.9236  143.9711  170.9518 C.2     1  UNL1        0.0047
     29 C         145.3663  143.7876  170.5849 C.2     1  UNL1        0.0598
     30 C         146.4062  144.7122  171.1452 C.2     1  UNL1        0.2679
     31 O         147.8317  144.2588  171.2554 O.2     1  UNL1       -0.2681
     32 N         146.0205  146.0902  171.5952 N.am    1  UNL1       -0.1934
     33 O         147.0604  147.0147  172.1555 O.3     1  UNL1       -0.2949
     34 H         145.0849  146.3878  171.5229 H       1  UNL1        0.1825
     35 H         147.9221  146.5693  172.1567 H       1  UNL1        0.2414
@<TRIPOS>BOND
     1    16    17    1
     2    17    18    1
     3    17    19    1
     4    17     7    1
     5     7     8    2
     6     8     9    1
     7     9    10    2
     8    10    11    1
     9    11    12    2
    10    12    13    1
    11    13    14    1
    12    14    15    2
    13    15     1    1
    14     1     2    1
    15     2     3    1
    16     3     4    1
    17     4     5    1
    18     5    20    1
    19    20    21    1
    20    21    22   ar
    21    22    23   ar
    22    23    24   ar
    23    24    28    1
    24    28    29    2
    25    29    30    1
    26    30    31    2
    27    30    32   am
    28    32    33    1
    29    24    25   ar
    30    25    26   ar
    31    26    27    1
    32     5     6    1
    33    15     7    1
    34     6     1    1
    35    14     9    1
    36    26    21   ar
    37    32    34    1
    38    33    35    1
@<TRIPOS>MOLECULE
*****
 35 38 0 0 0
SMALL
GASTEIGER

@<TRIPOS>ATOM
      1 C         140.0908  138.7560  160.0790 C.3     1  UNL1        0.0393
      2 C         138.9183  139.6356  159.7608 C.3     1  UNL1        0.0072
      3 C         137.8386  139.8445  160.7809 C.3     1  UNL1        0.0177
      4 C         137.9315  139.1737  162.1193 C.3     1  UNL1        0.0724
      5 N         139.1040  138.2941  162.4376 N.3     1  UNL1       -0.2686
      6 C         140.1837  138.0852  161.4175 C.3     1  UNL1        0.0767
      7 C         142.6267  138.8582  159.2399 C.2     1  UNL1        0.0540
      8 N         143.3397  138.4938  157.9715 N.2     1  UNL1       -0.2503
      9 C         142.3242  137.9575  157.0065 C.2     1  UNL1        0.0770
     10 C         142.4470  137.4434  155.6028 C.2     1  UNL1        0.0184
     11 C         141.2292  136.9622  154.8711 C.2     1  UNL1       -0.0027
     12 C         139.8886  136.9952  155.5431 C.2     1  UNL1       -0.0213
     13 C         139.7657  137.5093  156.9469 C.3     1  UNL1        0.0535
     14 C         140.9835  137.9904  157.6786 C.2     1  UNL1       -0.0030
     15 C         141.1705  138.5471  159.0589 C.2     1  UNL1       -0.0098
     16 C         142.8361  140.8081  160.0487 C.3     1  UNL1        0.0059
     17 C         143.2589  139.4328  160.4729 C.3     1  UNL1        0.0352
     18 C         143.6816  138.0576  160.8971 C.3     1  UNL1        0.0059
     19 C         143.8910  140.0074  161.7058 C.3     1  UNL1        0.0059
     20 C         139.1970  137.6232  163.7760 C.3     1  UNL1        0.1000
     21 C         139.5742  138.4200  164.9896 C.ar    1  UNL1        0.0045
     22 C         138.5074  138.9400  165.9069 C.ar    1  UNL1       -0.0021
     23 C         138.8847  139.7367  167.1205 C.ar    1  UNL1       -0.0002
     24 C         140.3289  140.0136  167.4168 C.ar    1  UNL1        0.0010
     25 C         141.3957  139.4936  166.4995 C.ar    1  UNL1        0.0111
     26 C         141.0185  138.6969  165.2859 C.ar    1  UNL1        0.0550
     27 CL        142.0853  138.1769  164.3686 Cl      1  UNL1       -0.0825
     28 C         140.7061  140.8103  168.6304 C.2     1  UNL1        0.0047
     29 C         141.1721  142.2283  168.4815 C.2     1  UNL1        0.0598
     30 C         141.5494  143.0251  169.6951 C.2     1  UNL1        0.2679
     31 O         140.4828  143.6640  170.5342 O.2     1  UNL1       -0.2681
     32 N         142.9933  143.1831  170.0696 N.am    1  UNL1       -0.1934
     33 O         143.3705  143.9800  171.2832 O.3     1  UNL1       -0.2949
     34 H         143.6934  142.7638  169.5189 H       1  UNL1        0.1825
     35 H         142.5681  144.3210  171.7083 H       1  UNL1        0.2414
@<TRIPOS>BOND
     1    16    17    1
     2    17    18    1
     3    17    19    1
     4    17     7    1
     5     7     8    2
     6     8     9    1
     7     9    10    2
     8    10    11    1
     9    11    12    2
    10    12    13    1
    11    13    14    1
    12    14    15    2
    13    15     1    1
    14     1     2    1
    15     2     3    1
    16     3     4    1
    17     4     5    1
    18     5    20    1
    19    20    21    1
    20    21    22   ar
    21    22    23   ar
    22    23    24   ar
    23    24    28    1
    24    28    29    2
    25    29    30    1
    26    30    31    2
    27    30    32   am
    28    32    33    1
    29    24    25   ar
    30    25    26   ar
    31    26    27    1
    32     5     6    1
    33    15     7    1
    34     6     1    1
    35    14     9    1
    36    26    21   ar
    37    32    34    1
    38    33    35    1
@<TRIPOS>MOLECULE
*****
 35 38 0 0 0
SMALL
GASTEIGER

@<TRIPOS>ATOM
      1 C         142.6103  140.8253  161.2395 C.3     1  UNL1        0.0393
      2 C         143.6414  140.1635  160.3742 C.3     1  UNL1        0.0072
      3 C         144.0368  138.7400  160.6339 C.3     1  UNL1        0.0177
      4 C         143.4011  137.9784  161.7590 C.3     1  UNL1        0.0724
      5 N         142.3700  138.6402  162.6243 N.3     1  UNL1       -0.2686
      6 C         141.9746  140.0637  162.3646 C.3     1  UNL1        0.0767
      7 C         142.5503  143.4286  161.8432 C.2     1  UNL1        0.0540
      8 N         141.9573  144.6512  161.2080 N.2     1  UNL1       -0.2503
      9 C         141.2554  144.2271  159.9520 C.2     1  UNL1        0.0770
     10 C         140.4919  145.0011  158.9186 C.2     1  UNL1        0.0184
     11 C         139.8876  144.2902  157.7441 C.2     1  UNL1       -0.0027
     12 C         140.0468  142.8054  157.6031 C.2     1  UNL1       -0.0213
     13 C         140.8103  142.0314  158.6365 C.3     1  UNL1        0.0535
     14 C         141.4146  142.7422  159.8109 C.2     1  UNL1       -0.0030
     15 C         142.2149  142.2488  160.9797 C.2     1  UNL1       -0.0098
     16 C         142.0647  143.3631  163.9071 C.3     1  UNL1        0.0059
     17 C         143.3400  143.3921  163.1179 C.3     1  UNL1        0.0352
     18 C         144.6153  143.4212  162.3287 C.3     1  UNL1        0.0059
     19 C         144.1297  143.3557  164.3927 C.3     1  UNL1        0.0059
     20 C         141.7343  137.8787  163.7494 C.3     1  UNL1        0.1000
     21 C         141.2692  138.6039  164.9773 C.ar    1  UNL1        0.0045
     22 C         139.8101  138.8939  165.1695 C.ar    1  UNL1       -0.0021
     23 C         139.3450  139.6192  166.3975 C.ar    1  UNL1       -0.0002
     24 C         140.3390  140.0544  167.4332 C.ar    1  UNL1        0.0010
     25 C         141.7981  139.7643  167.2409 C.ar    1  UNL1        0.0111
     26 C         142.2632  139.0391  166.0130 C.ar    1  UNL1        0.0550
     27 CL        143.7223  138.7491  165.8208 Cl      1  UNL1       -0.0825
     28 C         139.8739  140.7796  168.6610 C.2     1  UNL1        0.0047
     29 C         140.8711  141.4493  169.5593 C.2     1  UNL1        0.0598
     30 C         140.4061  142.1746  170.7873 C.2     1  UNL1        0.2679
     31 O         141.2447  142.1580  172.0308 O.2     1  UNL1       -0.2681
     32 N         139.1024  142.9163  170.7717 N.am    1  UNL1       -0.1934
     33 O         138.6375  143.6416  171.9997 O.3     1  UNL1       -0.2949
     34 H         138.5519  142.9272  169.9556 H       1  UNL1        0.1825
     35 H         139.2914  143.5309  172.7076 H       1  UNL1        0.2414
@<TRIPOS>BOND
     1    16    17    1
     2    17    18    1
     3    17    19    1
     4    17     7    1
     5     7     8    2
     6     8     9    1
     7     9    10    2
     8    10    11    1
     9    11    12    2
    10    12    13    1
    11    13    14    1
    12    14    15    2
    13    15     1    1
    14     1     2    1
    15     2     3    1
    16     3     4    1
    17     4     5    1
    18     5    20    1
    19    20    21    1
    20    21    22   ar
    21    22    23   ar
    22    23    24   ar
    23    24    28    1
    24    28    29    2
    25    29    30    1
    26    30    31    2
    27    30    32   am
    28    32    33    1
    29    24    25   ar
    30    25    26   ar
    31    26    27    1
    32     5     6    1
    33    15     7    1
    34     6     1    1
    35    14     9    1
    36    26    21   ar
    37    32    34    1
    38    33    35    1
@<TRIPOS>MOLECULE
*****
 35 38 0 0 0
SMALL
GASTEIGER

@<TRIPOS>ATOM
      1 C         140.0860  139.5592  165.5845 C.3     1  UNL1        0.0393
      2 C         139.9107  138.1879  165.0029 C.3     1  UNL1        0.0072
      3 C         139.0217  137.9864  163.8117 C.3     1  UNL1        0.0177
      4 C         138.3079  139.1563  163.2020 C.3     1  UNL1        0.0724
      5 N         138.4832  140.5278  163.7837 N.3     1  UNL1       -0.2686
      6 C         139.3722  140.7293  164.9749 C.3     1  UNL1        0.0767
      7 C         142.4750  139.7528  166.7679 C.2     1  UNL1        0.0540
      8 N         142.9471  139.9927  168.1713 N.2     1  UNL1       -0.2503
      9 C         141.7390  140.1489  169.0465 C.2     1  UNL1        0.0770
     10 C         141.5912  140.4032  170.5174 C.2     1  UNL1        0.0184
     11 C         140.2247  140.5141  171.1257 C.2     1  UNL1       -0.0027
     12 C         139.0058  140.3708  170.2632 C.2     1  UNL1       -0.0213
     13 C         139.1536  140.1165  168.7924 C.3     1  UNL1        0.0535
     14 C         140.5201  140.0056  168.1840 C.2     1  UNL1       -0.0030
     15 C         140.9751  139.7607  166.7758 C.2     1  UNL1       -0.0098
     16 C         143.4606  138.0845  165.9044 C.3     1  UNL1        0.0059
     17 C         143.3493  139.5419  165.5674 C.3     1  UNL1        0.0352
     18 C         143.2381  140.9993  165.2304 C.3     1  UNL1        0.0059
     19 C         144.2236  139.3311  164.3670 C.3     1  UNL1        0.0059
     20 C         137.7695  141.6979  163.1741 C.3     1  UNL1        0.1000
     21 C         138.4600  142.5453  162.1469 C.ar    1  UNL1        0.0045
     22 C         138.6357  142.0338  160.7478 C.ar    1  UNL1       -0.0021
     23 C         139.3262  142.8813  159.7207 C.ar    1  UNL1       -0.0002
     24 C         139.8410  144.2402  160.0926 C.ar    1  UNL1        0.0010
     25 C         139.6653  144.7517  161.4917 C.ar    1  UNL1        0.0111
     26 C         138.9748  143.9043  162.5189 C.ar    1  UNL1        0.0550
     27 CL        138.7991  144.4158  163.9180 Cl      1  UNL1       -0.0825
     28 C         140.5314  145.0877  159.0654 C.2     1  UNL1        0.0047
     29 C         139.8765  145.3424  157.7402 C.2     1  UNL1        0.0598
     30 C         140.5669  146.1898  156.7129 C.2     1  UNL1        0.2679
     31 O         141.9992  145.9202  156.3581 O.2     1  UNL1       -0.2681
     32 N         139.8251  147.3067  156.0405 N.am    1  UNL1       -0.1934
     33 O         140.5156  148.1541  155.0132 O.3     1  UNL1       -0.2949
     34 H         138.8851  147.4836  156.2733 H       1  UNL1        0.1825
     35 H         141.4297  147.8487  154.9036 H       1  UNL1        0.2414
@<TRIPOS>BOND
     1    16    17    1
     2    17    18    1
     3    17    19    1
     4    17     7    1
     5     7     8    2
     6     8     9    1
     7     9    10    2
     8    10    11    1
     9    11    12    2
    10    12    13    1
    11    13    14    1
    12    14    15    2
    13    15     1    1
    14     1     2    1
    15     2     3    1
    16     3     4    1
    17     4     5    1
    18     5    20    1
    19    20    21    1
    20    21    22   ar
    21    22    23   ar
    22    23    24   ar
    23    24    28    1
    24    28    29    2
    25    29    30    1
    26    30    31    2
    27    30    32   am
    28    32    33    1
    29    24    25   ar
    30    25    26   ar
    31    26    27    1
    32     5     6    1
    33    15     7    1
    34     6     1    1
    35    14     9    1
    36    26    21   ar
    37    32    34    1
    38    33    35    1
@<TRIPOS>MOLECULE
*****
 35 38 0 0 0
SMALL
GASTEIGER

@<TRIPOS>ATOM
      1 C         141.6687  142.2299  163.4400 C.3     1  UNL1        0.0393
      2 C         142.8522  142.6535  162.6215 C.3     1  UNL1        0.0072
      3 C         144.1639  142.9382  163.2910 C.3     1  UNL1        0.0177
      4 C         144.2923  142.7993  164.7791 C.3     1  UNL1        0.0724
      5 N         143.1088  142.3758  165.5976 N.3     1  UNL1       -0.2686
      6 C         141.7970  142.0911  164.9281 C.3     1  UNL1        0.0767
      7 C         139.4228  142.9660  162.1914 C.2     1  UNL1        0.0540
      8 N         138.2375  142.2414  161.6256 N.2     1  UNL1       -0.2503
      9 C         138.4392  140.7728  161.8550 C.2     1  UNL1        0.0770
     10 C         137.5993  139.5786  161.5110 C.2     1  UNL1        0.0184
     11 C         138.0694  138.2013  161.8745 C.2     1  UNL1       -0.0027
     12 C         139.3793  138.0183  162.5821 C.2     1  UNL1       -0.0213
     13 C         140.2191  139.2125  162.9261 C.3     1  UNL1        0.0535
     14 C         139.7491  140.5898  162.5626 C.2     1  UNL1       -0.0030
     15 C         140.3569  141.9452  162.7705 C.2     1  UNL1       -0.0098
     16 C         140.2236  144.3558  160.8032 C.3     1  UNL1        0.0059
     17 C         139.6363  144.4507  162.1802 C.3     1  UNL1        0.0352
     18 C         139.0490  144.5456  163.5571 C.3     1  UNL1        0.0059
     19 C         139.8498  145.9354  162.1689 C.3     1  UNL1        0.0059
     20 C         143.2370  142.2369  167.0856 C.3     1  UNL1        0.1000
     21 C         142.0460  141.8416  167.9073 C.ar    1  UNL1        0.0045
     22 C         141.2170  142.8944  168.5813 C.ar    1  UNL1       -0.0021
     23 C         140.0259  142.4990  169.4030 C.ar    1  UNL1       -0.0002
     24 C         139.6639  141.0509  169.5507 C.ar    1  UNL1        0.0010
     25 C         140.4929  139.9981  168.8767 C.ar    1  UNL1        0.0111
     26 C         141.6839  140.3934  168.0550 C.ar    1  UNL1        0.0550
     27 CL        142.5129  139.3405  167.3810 Cl      1  UNL1       -0.0825
     28 C         138.4728  140.6556  170.3724 C.2     1  UNL1        0.0047
     29 C         137.9617  139.2463  170.3225 C.2     1  UNL1        0.0598
     30 C         136.7707  138.8509  171.1441 C.2     1  UNL1        0.2679
     31 O         135.8332  139.9021  171.6601 O.2     1  UNL1       -0.2681
     32 N         136.5171  137.4045  171.4499 N.am    1  UNL1       -0.1934
     33 O         135.3260  137.0092  172.2716 O.3     1  UNL1       -0.2949
     34 H         137.1324  136.7146  171.1113 H       1  UNL1        0.1825
     35 H         134.8285  137.8031  172.5226 H       1  UNL1        0.2414
@<TRIPOS>BOND
     1    16    17    1
     2    17    18    1
     3    17    19    1
     4    17     7    1
     5     7     8    2
     6     8     9    1
     7     9    10    2
     8    10    11    1
     9    11    12    2
    10    12    13    1
    11    13    14    1
    12    14    15    2
    13    15     1    1
    14     1     2    1
    15     2     3    1
    16     3     4    1
    17     4     5    1
    18     5    20    1
    19    20    21    1
    20    21    22   ar
    21    22    23   ar
    22    23    24   ar
    23    24    28    1
    24    28    29    2
    25    29    30    1
    26    30    31    2
    27    30    32   am
    28    32    33    1
    29    24    25   ar
    30    25    26   ar
    31    26    27    1
    32     5     6    1
    33    15     7    1
    34     6     1    1
    35    14     9    1
    36    26    21   ar
    37    32    34    1
    38    33    35    1
