@<TRIPOS>MOLECULE
*****
 33 36 0 0 0
SMALL
GASTEIGER

@<TRIPOS>ATOM
      1 C         139.0916  139.4580  164.3210 C.ar    1  UNL1        0.0541
      2 C         139.6038  140.6553  165.0652 C.ar    1  UNL1        0.0180
      3 C         139.5246  140.6984  166.5624 C.ar    1  UNL1        0.0382
      4 C         138.9331  139.5438  167.3156 C.ar    1  UNL1        0.1386
      5 C         138.4209  138.3463  166.5715 C.ar    1  UNL1        0.0382
      6 C         138.5002  138.3034  165.0742 C.ar    1  UNL1        0.0180
      7 O         138.2898  139.8473  157.5052 O.2     1  UNL1       -0.2699
      8 C         139.4087  139.2862  158.3318 C.2     1  UNL1        0.2494
      9 N         139.3294  139.3291  159.8292 N.am    1  UNL1       -0.2660
     10 C         138.1313  139.9331  160.4997 C.3     1  UNL1        0.1160
     11 C         138.0520  139.9761  161.9971 C.3     1  UNL1        0.1197
     12 N         139.1709  139.4150  162.8238 N.am    1  UNL1       -0.2555
     13 C         140.3690  138.8110  162.1531 C.2     1  UNL1        0.2497
     14 O         141.4879  138.2500  162.9798 O.2     1  UNL1       -0.2727
     15 C         140.4482  138.7681  160.6558 C.3     1  UNL1        0.1799
     16 C         140.6068  138.6822  157.6612 C.ar    1  UNL1        0.0537
     17 C         140.5123  137.3190  157.0427 C.ar    1  UNL1        0.0068
     18 C         141.7105  136.7150  156.3721 C.ar    1  UNL1        0.0298
     19 C         143.0031  137.4743  156.3201 C.ar    1  UNL1        0.1401
     20 F         144.2012  136.8703  155.6495 F       1  UNL1       -0.2042
     21 C         143.0975  138.8375  156.9387 C.ar    1  UNL1        0.0298
     22 C         141.8993  139.4415  157.6092 C.ar    1  UNL1        0.0068
     23 O         138.8538  139.5867  168.8129 O.3     1  UNL1       -0.4754
     24 C         139.5505  140.6784  169.5698 C.3     1  UNL1        0.2068
     25 C         140.6621  140.3414  170.5190 C.3     1  UNL1        0.0646
     26 C         142.0854  140.6199  170.1362 C.3     1  UNL1        0.0759
     27 N         142.4873  140.6192  168.6910 N.3     1  UNL1       -0.2726
     28 C         142.7089  141.9697  168.0766 C.3     1  UNL1        0.0721
     29 C         143.1124  142.3027  166.6707 C.3     1  UNL1        0.0173
     30 C         143.3939  141.3676  165.5323 C.3     1  UNL1        0.0015
     31 C         143.3415  139.8686  165.5182 C.3     1  UNL1        0.0015
     32 C         142.9946  138.9344  166.6393 C.3     1  UNL1        0.0173
     33 C         142.6145  139.2685  168.0514 C.3     1  UNL1        0.0721
@<TRIPOS>BOND
     1     7     8    2
     2     8    16    1
     3    16    17   ar
     4    17    18   ar
     5    18    19   ar
     6    19    20    1
     7    19    21   ar
     8    21    22   ar
     9     8     9   am
    10     9    10    1
    11    10    11    1
    12    11    12    1
    13    12     1    1
    14     1     2   ar
    15     2     3   ar
    16     3     4   ar
    17     4    23    1
    18    23    24    1
    19    24    25    1
    20    25    26    1
    21    26    27    1
    22    27    28    1
    23    28    29    1
    24    29    30    1
    25    30    31    1
    26    31    32    1
    27    32    33    1
    28     4     5   ar
    29     5     6   ar
    30    12    13   am
    31    13    14    2
    32    13    15    1
    33    22    16   ar
    34    15     9    1
    35     6     1   ar
    36    33    27    1
@<TRIPOS>MOLECULE
*****
 33 36 0 0 0
SMALL
GASTEIGER

@<TRIPOS>ATOM
      1 C         139.8877  139.6216  164.1141 C.ar    1  UNL1        0.0541
      2 C         140.9938  139.5052  165.1205 C.ar    1  UNL1        0.0180
      3 C         140.6743  139.4715  166.5857 C.ar    1  UNL1        0.0382
      4 C         139.2486  139.5542  167.0445 C.ar    1  UNL1        0.1386
      5 C         138.1424  139.6707  166.0381 C.ar    1  UNL1        0.0382
      6 C         138.4620  139.7044  164.5729 C.ar    1  UNL1        0.0180
      7 O         141.2389  141.0693  157.5317 O.2     1  UNL1       -0.2699
      8 C         141.1659  139.7563  158.2534 C.2     1  UNL1        0.2494
      9 N         140.8464  139.7226  159.7186 N.am    1  UNL1       -0.2660
     10 C         140.5998  141.0019  160.4620 C.3     1  UNL1        0.1160
     11 C         140.2803  140.9682  161.9273 C.3     1  UNL1        0.1197
     12 N         140.2073  139.6553  162.6490 N.am    1  UNL1       -0.2555
     13 C         140.4538  138.3760  161.9055 C.2     1  UNL1        0.2497
     14 O         140.3808  137.0631  162.6273 O.2     1  UNL1       -0.2727
     15 C         140.7734  138.4097  160.4403 C.3     1  UNL1        0.1799
     16 C         141.4125  138.4771  157.5100 C.ar    1  UNL1        0.0537
     17 C         140.3306  137.8855  156.6559 C.ar    1  UNL1        0.0068
     18 C         140.5771  136.6061  155.9125 C.ar    1  UNL1        0.0298
     19 C         141.9056  135.9185  156.0231 C.ar    1  UNL1        0.1401
     20 F         142.1522  134.6393  155.2797 F       1  UNL1       -0.2042
     21 C         142.9876  136.5101  156.8772 C.ar    1  UNL1        0.0298
     22 C         142.7409  137.7895  157.6206 C.ar    1  UNL1        0.0068
     23 O         138.9290  139.5205  168.5097 O.3     1  UNL1       -0.4754
     24 C         139.8564  140.1685  169.4946 C.3     1  UNL1        0.2068
     25 C         139.5701  141.5532  169.9954 C.3     1  UNL1        0.0646
     26 C         140.4444  142.6978  169.5767 C.3     1  UNL1        0.0759
     27 N         141.0231  142.7326  168.1933 N.3     1  UNL1       -0.2726
     28 C         142.4751  142.3712  168.0860 C.3     1  UNL1        0.0721
     29 C         143.3359  142.3121  166.8590 C.3     1  UNL1        0.0173
     30 C         142.9575  142.5997  165.4364 C.3     1  UNL1        0.0015
     31 C         141.6248  143.0175  164.8892 C.3     1  UNL1        0.0015
     32 C         140.3413  143.2508  165.6297 C.3     1  UNL1        0.0173
     33 C         140.0736  143.1240  167.1002 C.3     1  UNL1        0.0721
@<TRIPOS>BOND
     1     7     8    2
     2     8    16    1
     3    16    17   ar
     4    17    18   ar
     5    18    19   ar
     6    19    20    1
     7    19    21   ar
     8    21    22   ar
     9     8     9   am
    10     9    10    1
    11    10    11    1
    12    11    12    1
    13    12     1    1
    14     1     2   ar
    15     2     3   ar
    16     3     4   ar
    17     4    23    1
    18    23    24    1
    19    24    25    1
    20    25    26    1
    21    26    27    1
    22    27    28    1
    23    28    29    1
    24    29    30    1
    25    30    31    1
    26    31    32    1
    27    32    33    1
    28     4     5   ar
    29     5     6   ar
    30    12    13   am
    31    13    14    2
    32    13    15    1
    33    22    16   ar
    34    15     9    1
    35     6     1   ar
    36    33    27    1
@<TRIPOS>MOLECULE
*****
 33 36 0 0 0
SMALL
GASTEIGER

@<TRIPOS>ATOM
      1 C         139.3720  139.4271  162.5163 C.ar    1  UNL1        0.0541
      2 C         140.4183  138.5955  161.8355 C.ar    1  UNL1        0.0180
      3 C         140.3688  138.3969  160.3495 C.ar    1  UNL1        0.0382
      4 C         139.2730  139.0299  159.5443 C.ar    1  UNL1        0.1386
      5 C         138.2266  139.8616  160.2251 C.ar    1  UNL1        0.0382
      6 C         138.2761  140.0602  161.7111 C.ar    1  UNL1        0.0180
      7 O         138.5526  139.5574  169.3399 O.2     1  UNL1       -0.2699
      8 C         139.5700  140.2215  168.4602 C.2     1  UNL1        0.2494
      9 N         139.5205  140.0229  166.9742 N.am    1  UNL1       -0.2660
     10 C         138.4536  139.1602  166.3680 C.3     1  UNL1        0.1160
     11 C         138.4041  138.9616  164.8819 C.3     1  UNL1        0.1197
     12 N         139.4215  139.6257  164.0022 N.am    1  UNL1       -0.2555
     13 C         140.4884  140.4884  164.6084 C.2     1  UNL1        0.2497
     14 O         141.5058  141.1525  163.7287 O.2     1  UNL1       -0.2727
     15 C         140.5379  140.6870  166.0944 C.3     1  UNL1        0.1799
     16 C         140.6369  141.0841  169.0664 C.ar    1  UNL1        0.0537
     17 C         140.3564  142.5278  169.3616 C.ar    1  UNL1        0.0068
     18 C         141.4233  143.3905  169.9678 C.ar    1  UNL1        0.0298
     19 C         142.7708  142.8094  170.2788 C.ar    1  UNL1        0.1401
     20 F         143.8377  143.6720  170.8850 F       1  UNL1       -0.2042
     21 C         143.0513  141.3657  169.9837 C.ar    1  UNL1        0.0298
     22 C         141.9843  140.5031  169.3774 C.ar    1  UNL1        0.0068
     23 O         139.2234  138.8314  158.0583 O.3     1  UNL1       -0.4754
     24 C         139.9718  137.6943  157.4283 C.3     1  UNL1        0.2068
     25 C         141.2426  137.9580  156.6762 C.3     1  UNL1        0.0646
     26 C         142.4561  137.1153  156.9354 C.3     1  UNL1        0.0759
     27 N         142.4348  135.6505  156.6133 N.3     1  UNL1       -0.2726
     28 C         141.5614  135.2501  155.4613 C.3     1  UNL1        0.0721
     29 C         141.3272  133.8800  154.8972 C.3     1  UNL1        0.0173
     30 C         141.9084  132.5721  155.3458 C.3     1  UNL1        0.0015
     31 C         142.8674  132.3110  156.4692 C.3     1  UNL1        0.0015
     32 C         143.4821  133.2934  157.4216 C.3     1  UNL1        0.0173
     33 C         143.2895  134.7797  157.4856 C.3     1  UNL1        0.0721
@<TRIPOS>BOND
     1     7     8    2
     2     8    16    1
     3    16    17   ar
     4    17    18   ar
     5    18    19   ar
     6    19    20    1
     7    19    21   ar
     8    21    22   ar
     9     8     9   am
    10     9    10    1
    11    10    11    1
    12    11    12    1
    13    12     1    1
    14     1     2   ar
    15     2     3   ar
    16     3     4   ar
    17     4    23    1
    18    23    24    1
    19    24    25    1
    20    25    26    1
    21    26    27    1
    22    27    28    1
    23    28    29    1
    24    29    30    1
    25    30    31    1
    26    31    32    1
    27    32    33    1
    28     4     5   ar
    29     5     6   ar
    30    12    13   am
    31    13    14    2
    32    13    15    1
    33    22    16   ar
    34    15     9    1
    35     6     1   ar
    36    33    27    1
@<TRIPOS>MOLECULE
*****
 33 36 0 0 0
SMALL
GASTEIGER

@<TRIPOS>ATOM
      1 C         140.7728  141.0892  159.3576 C.ar    1  UNL1        0.0541
      2 C         141.1530  141.3046  160.7925 C.ar    1  UNL1        0.0180
      3 C         140.4337  142.3341  161.6127 C.ar    1  UNL1        0.0382
      4 C         139.3341  143.1483  160.9979 C.ar    1  UNL1        0.1386
      5 C         138.9539  142.9329  159.5629 C.ar    1  UNL1        0.0382
      6 C         139.6733  141.9034  158.7428 C.ar    1  UNL1        0.0180
      7 O         144.9403  137.3217  155.3968 O.2     1  UNL1       -0.2699
      8 C         143.6502  136.9710  156.0772 C.2     1  UNL1        0.2494
      9 N         142.9309  138.0006  156.8973 N.am    1  UNL1       -0.2660
     10 C         143.5016  139.3807  157.0371 C.3     1  UNL1        0.1160
     11 C         142.7822  140.4103  157.8572 C.3     1  UNL1        0.1197
     12 N         141.4921  140.0597  158.5375 N.am    1  UNL1       -0.2555
     13 C         140.9214  138.6795  158.3978 C.2     1  UNL1        0.2497
     14 O         139.6314  138.3289  159.0781 O.2     1  UNL1       -0.2727
     15 C         141.6408  137.6500  157.5776 C.3     1  UNL1        0.1799
     16 C         143.0795  135.5909  155.9374 C.ar    1  UNL1        0.0537
     17 C         143.4718  134.5154  156.9066 C.ar    1  UNL1        0.0068
     18 C         142.9011  133.1352  156.7668 C.ar    1  UNL1        0.0298
     19 C         141.9380  132.8307  155.6578 C.ar    1  UNL1        0.1401
     20 F         141.3673  131.4506  155.5181 F       1  UNL1       -0.2042
     21 C         141.5457  133.9062  154.6886 C.ar    1  UNL1        0.0298
     22 C         142.1165  135.2863  154.8285 C.ar    1  UNL1        0.0068
     23 O         138.6147  144.1778  161.8179 O.3     1  UNL1       -0.4754
     24 C         137.7007  143.7483  162.9270 C.3     1  UNL1        0.2068
     25 C         138.1470  143.8648  164.3544 C.3     1  UNL1        0.0646
     26 C         139.2625  144.7996  164.7174 C.3     1  UNL1        0.0759
     27 N         140.6876  144.3443  164.6096 N.3     1  UNL1       -0.2726
     28 C         141.0275  143.0877  165.3550 C.3     1  UNL1        0.0721
     29 C         142.3483  142.3823  165.4455 C.3     1  UNL1        0.0173
     30 C         143.6551  142.7592  164.8131 C.3     1  UNL1        0.0015
     31 C         143.9641  143.9345  163.9339 C.3     1  UNL1        0.0015
     32 C         143.0426  145.0234  163.4700 C.3     1  UNL1        0.0173
     33 C         141.5844  145.2057  163.7708 C.3     1  UNL1        0.0721
@<TRIPOS>BOND
     1     7     8    2
     2     8    16    1
     3    16    17   ar
     4    17    18   ar
     5    18    19   ar
     6    19    20    1
     7    19    21   ar
     8    21    22   ar
     9     8     9   am
    10     9    10    1
    11    10    11    1
    12    11    12    1
    13    12     1    1
    14     1     2   ar
    15     2     3   ar
    16     3     4   ar
    17     4    23    1
    18    23    24    1
    19    24    25    1
    20    25    26    1
    21    26    27    1
    22    27    28    1
    23    28    29    1
    24    29    30    1
    25    30    31    1
    26    31    32    1
    27    32    33    1
    28     4     5   ar
    29     5     6   ar
    30    12    13   am
    31    13    14    2
    32    13    15    1
    33    22    16   ar
    34    15     9    1
    35     6     1   ar
    36    33    27    1
@<TRIPOS>MOLECULE
*****
 33 36 0 0 0
SMALL
GASTEIGER

@<TRIPOS>ATOM
      1 C         139.4476  139.5468  162.4547 C.ar    1  UNL1        0.0541
      2 C         139.2398  140.7338  161.5615 C.ar    1  UNL1        0.0180
      3 C         139.2108  140.5560  160.0724 C.ar    1  UNL1        0.0382
      4 C         139.3896  139.1912  159.4764 C.ar    1  UNL1        0.1386
      5 C         139.5973  138.0041  160.3696 C.ar    1  UNL1        0.0382
      6 C         139.6263  138.1819  161.8588 C.ar    1  UNL1        0.0180
      7 O         138.5490  139.5624  169.2696 O.2     1  UNL1       -0.2699
      8 C         139.5636  140.2581  168.4113 C.2     1  UNL1        0.2494
      9 N         139.5346  140.0803  166.9221 N.am    1  UNL1       -0.2660
     10 C         138.4910  139.2068  166.2913 C.3     1  UNL1        0.1160
     11 C         138.4620  139.0290  164.8021 C.3     1  UNL1        0.1197
     12 N         139.4766  139.7246  163.9438 N.am    1  UNL1       -0.2555
     13 C         140.5203  140.5981  164.5747 C.2     1  UNL1        0.2497
     14 O         141.5348  141.2937  163.7164 O.2     1  UNL1       -0.2727
     15 C         140.5492  140.7759  166.0638 C.3     1  UNL1        0.1799
     16 C         140.6072  141.1315  169.0421 C.ar    1  UNL1        0.0537
     17 C         141.9511  140.5629  169.3897 C.ar    1  UNL1        0.0068
     18 C         142.9947  141.4364  170.0205 C.ar    1  UNL1        0.0298
     19 C         142.6944  142.8785  170.3037 C.ar    1  UNL1        0.1401
     20 F         143.7380  143.7519  170.9345 F       1  UNL1       -0.2042
     21 C         141.3506  143.4471  169.9562 C.ar    1  UNL1        0.0298
     22 C         140.3070  142.5736  169.3254 C.ar    1  UNL1        0.0068
     23 O         139.3606  139.0133  157.9873 O.3     1  UNL1       -0.4754
     24 C         139.9692  137.7912  157.3660 C.3     1  UNL1        0.2068
     25 C         141.1741  137.9202  156.4817 C.3     1  UNL1        0.0646
     26 C         142.5502  137.8133  157.0689 C.3     1  UNL1        0.0759
     27 N         142.8420  138.4165  158.4109 N.3     1  UNL1       -0.2726
     28 C         142.9414  139.9129  158.4440 C.3     1  UNL1        0.0721
     29 C         143.2192  140.8060  159.6168 C.3     1  UNL1        0.0173
     30 C         143.4662  140.4233  161.0458 C.3     1  UNL1        0.0015
     31 C         143.4965  139.0530  161.6553 C.3     1  UNL1        0.0015
     32 C         143.2872  137.7270  160.9861 C.3     1  UNL1        0.0173
     33 C         142.9959  137.4438  159.5422 C.3     1  UNL1        0.0721
@<TRIPOS>BOND
     1     7     8    2
     2     8    16    1
     3    16    17   ar
     4    17    18   ar
     5    18    19   ar
     6    19    20    1
     7    19    21   ar
     8    21    22   ar
     9     8     9   am
    10     9    10    1
    11    10    11    1
    12    11    12    1
    13    12     1    1
    14     1     2   ar
    15     2     3   ar
    16     3     4   ar
    17     4    23    1
    18    23    24    1
    19    24    25    1
    20    25    26    1
    21    26    27    1
    22    27    28    1
    23    28    29    1
    24    29    30    1
    25    30    31    1
    26    31    32    1
    27    32    33    1
    28     4     5   ar
    29     5     6   ar
    30    12    13   am
    31    13    14    2
    32    13    15    1
    33    22    16   ar
    34    15     9    1
    35     6     1   ar
    36    33    27    1
@<TRIPOS>MOLECULE
*****
 33 36 0 0 0
SMALL
GASTEIGER

@<TRIPOS>ATOM
      1 C         140.0263  138.8505  163.4750 C.ar    1  UNL1        0.0541
      2 C         140.1917  140.1781  164.1533 C.ar    1  UNL1        0.0180
      3 C         139.7738  140.3466  165.5840 C.ar    1  UNL1        0.0382
      4 C         139.1905  139.1875  166.3364 C.ar    1  UNL1        0.1386
      5 C         139.0250  137.8599  165.6582 C.ar    1  UNL1        0.0382
      6 C         139.4430  137.6914  164.2274 C.ar    1  UNL1        0.0180
      7 O         143.1307  137.8824  157.4190 O.2     1  UNL1       -0.2699
      8 C         141.6980  138.1764  157.7521 C.2     1  UNL1        0.2494
      9 N         141.2801  138.3450  159.1829 N.am    1  UNL1       -0.2660
     10 C         142.2948  138.2194  160.2803 C.3     1  UNL1        0.1160
     11 C         141.8769  138.3879  161.7111 C.3     1  UNL1        0.1197
     12 N         140.4442  138.6820  162.0443 N.am    1  UNL1       -0.2555
     13 C         139.4294  138.8076  160.9468 C.2     1  UNL1        0.2497
     14 O         137.9968  139.1016  161.2800 O.2     1  UNL1       -0.2727
     15 C         139.8474  138.6390  159.5161 C.3     1  UNL1        0.1799
     16 C         140.6833  138.3020  156.6546 C.ar    1  UNL1        0.0537
     17 C         140.4570  139.6277  155.9904 C.ar    1  UNL1        0.0068
     18 C         139.4422  139.7533  154.8929 C.ar    1  UNL1        0.0298
     19 C         138.6537  138.5530  154.4596 C.ar    1  UNL1        0.1401
     20 F         137.6390  138.6786  153.3622 F       1  UNL1       -0.2042
     21 C         138.8800  137.2273  155.1238 C.ar    1  UNL1        0.0298
     22 C         139.8948  137.1018  156.2214 C.ar    1  UNL1        0.0068
     23 O         138.7725  139.3560  167.7672 O.3     1  UNL1       -0.4754
     24 C         139.4877  140.3383  168.6466 C.3     1  UNL1        0.2068
     25 C         140.6685  139.8963  169.4593 C.3     1  UNL1        0.0646
     26 C         142.0263  140.4709  169.1832 C.3     1  UNL1        0.0759
     27 N         142.5924  140.4240  167.7949 N.3     1  UNL1       -0.2726
     28 C         142.8115  139.0528  167.2275 C.3     1  UNL1        0.0721
     29 C         143.3569  138.6734  165.8826 C.3     1  UNL1        0.0173
     30 C         143.8179  139.5713  164.7731 C.3     1  UNL1        0.0015
     31 C         143.8474  141.0706  164.7344 C.3     1  UNL1        0.0015
     32 C         143.4232  142.0421  165.7956 C.3     1  UNL1        0.0173
     33 C         142.8647  141.7542  167.1577 C.3     1  UNL1        0.0721
@<TRIPOS>BOND
     1     7     8    2
     2     8    16    1
     3    16    17   ar
     4    17    18   ar
     5    18    19   ar
     6    19    20    1
     7    19    21   ar
     8    21    22   ar
     9     8     9   am
    10     9    10    1
    11    10    11    1
    12    11    12    1
    13    12     1    1
    14     1     2   ar
    15     2     3   ar
    16     3     4   ar
    17     4    23    1
    18    23    24    1
    19    24    25    1
    20    25    26    1
    21    26    27    1
    22    27    28    1
    23    28    29    1
    24    29    30    1
    25    30    31    1
    26    31    32    1
    27    32    33    1
    28     4     5   ar
    29     5     6   ar
    30    12    13   am
    31    13    14    2
    32    13    15    1
    33    22    16   ar
    34    15     9    1
    35     6     1   ar
    36    33    27    1
@<TRIPOS>MOLECULE
*****
 33 36 0 0 0
SMALL
GASTEIGER

@<TRIPOS>ATOM
      1 C         140.6210  141.0534  159.3414 C.ar    1  UNL1        0.0541
      2 C         139.4666  141.7934  158.7335 C.ar    1  UNL1        0.0180
      3 C         138.7112  142.8030  159.5460 C.ar    1  UNL1        0.0382
      4 C         139.1104  143.0726  160.9666 C.ar    1  UNL1        0.1386
      5 C         140.2649  142.3326  161.5746 C.ar    1  UNL1        0.0382
      6 C         141.0202  141.3230  160.7619 C.ar    1  UNL1        0.0180
      7 O         144.9294  137.4006  155.4242 O.2     1  UNL1       -0.2699
      8 C         143.6422  137.0151  156.0909 C.2     1  UNL1        0.2494
      9 N         142.8869  138.0248  156.9036 N.am    1  UNL1       -0.2660
     10 C         143.4188  139.4196  157.0494 C.3     1  UNL1        0.1160
     11 C         142.6635  140.4293  157.8621 C.3     1  UNL1        0.1197
     12 N         141.3763  140.0439  158.5288 N.am    1  UNL1       -0.2555
     13 C         140.8443  138.6490  158.3829 C.2     1  UNL1        0.2497
     14 O         139.5571  138.2636  159.0497 O.2     1  UNL1       -0.2727
     15 C         141.5996  137.6394  157.5703 C.3     1  UNL1        0.1799
     16 C         143.1102  135.6203  155.9451 C.ar    1  UNL1        0.0537
     17 C         142.1968  135.2814  154.8046 C.ar    1  UNL1        0.0068
     18 C         141.6648  133.8864  154.6588 C.ar    1  UNL1        0.0298
     19 C         142.0463  132.8305  155.6535 C.ar    1  UNL1        0.1401
     20 F         141.5144  131.4356  155.5076 F       1  UNL1       -0.2042
     21 C         142.9598  133.1694  156.7940 C.ar    1  UNL1        0.0298
     22 C         143.4917  134.5644  156.9397 C.ar    1  UNL1        0.0068
     23 O         138.3551  144.0821  161.7792 O.3     1  UNL1       -0.4754
     24 C         137.8149  143.7070  163.1273 C.3     1  UNL1        0.2068
     25 C         138.2779  144.4403  164.3514 C.3     1  UNL1        0.0646
     26 C         139.2649  143.7991  165.2813 C.3     1  UNL1        0.0759
     27 N         140.7283  143.8207  164.9528 N.3     1  UNL1       -0.2726
     28 C         141.1752  144.9283  164.0451 C.3     1  UNL1        0.0721
     29 C         142.5556  145.2205  163.5359 C.3     1  UNL1        0.0173
     30 C         143.8297  144.4776  163.8085 C.3     1  UNL1        0.0015
     31 C         144.0385  143.2588  164.6576 C.3     1  UNL1        0.0015
     32 C         143.0244  142.4819  165.4438 C.3     1  UNL1        0.0173
     33 C         141.5512  142.7321  165.5752 C.3     1  UNL1        0.0721
@<TRIPOS>BOND
     1     7     8    2
     2     8    16    1
     3    16    17   ar
     4    17    18   ar
     5    18    19   ar
     6    19    20    1
     7    19    21   ar
     8    21    22   ar
     9     8     9   am
    10     9    10    1
    11    10    11    1
    12    11    12    1
    13    12     1    1
    14     1     2   ar
    15     2     3   ar
    16     3     4   ar
    17     4    23    1
    18    23    24    1
    19    24    25    1
    20    25    26    1
    21    26    27    1
    22    27    28    1
    23    28    29    1
    24    29    30    1
    25    30    31    1
    26    31    32    1
    27    32    33    1
    28     4     5   ar
    29     5     6   ar
    30    12    13   am
    31    13    14    2
    32    13    15    1
    33    22    16   ar
    34    15     9    1
    35     6     1   ar
    36    33    27    1
@<TRIPOS>MOLECULE
*****
 33 36 0 0 0
SMALL
GASTEIGER

@<TRIPOS>ATOM
      1 C         139.0659  139.6464  164.0850 C.ar    1  UNL1        0.0541
      2 C         139.6091  140.7902  164.8891 C.ar    1  UNL1        0.0180
      3 C         139.5565  140.7455  166.3875 C.ar    1  UNL1        0.0382
      4 C         138.9606  139.5569  167.0818 C.ar    1  UNL1        0.1386
      5 C         138.4173  138.4130  166.2778 C.ar    1  UNL1        0.0382
      6 C         138.4700  138.4578  164.7793 C.ar    1  UNL1        0.0180
      7 O         139.9544  138.7241  157.3315 O.2     1  UNL1       -0.2699
      8 C         139.2764  139.8255  158.0913 C.2     1  UNL1        0.2494
      9 N         139.2238  139.7807  159.5898 N.am    1  UNL1       -0.2660
     10 C         139.8491  138.6346  160.3283 C.3     1  UNL1        0.1160
     11 C         139.7964  138.5898  161.8268 C.3     1  UNL1        0.1197
     12 N         139.1185  139.6912  162.5866 N.am    1  UNL1       -0.2555
     13 C         138.4932  140.8373  161.8481 C.2     1  UNL1        0.2497
     14 O         137.8152  141.9387  162.6080 O.2     1  UNL1       -0.2727
     15 C         138.5458  140.8820  160.3497 C.3     1  UNL1        0.1799
     16 C         138.6511  140.9716  157.3528 C.ar    1  UNL1        0.0537
     17 C         139.4489  142.2119  157.0788 C.ar    1  UNL1        0.0068
     18 C         138.8235  143.3581  156.3403 C.ar    1  UNL1        0.0298
     19 C         137.4003  143.2638  155.8759 C.ar    1  UNL1        0.1401
     20 F         136.7750  144.4099  155.1374 F       1  UNL1       -0.2042
     21 C         136.6025  142.0235  156.1499 C.ar    1  UNL1        0.0298
     22 C         137.2280  140.8774  156.8884 C.ar    1  UNL1        0.0068
     23 O         138.9080  139.5121  168.5803 O.3     1  UNL1       -0.4754
     24 C         139.7903  140.4161  169.3890 C.3     1  UNL1        0.2068
     25 C         140.8681  139.8340  170.2548 C.3     1  UNL1        0.0646
     26 C         142.2236  139.5523  169.6774 C.3     1  UNL1        0.0759
     27 N         142.6003  140.1148  168.3388 N.3     1  UNL1       -0.2726
     28 C         142.7142  139.1186  167.2231 C.3     1  UNL1        0.0721
     29 C         143.0693  139.3607  165.7859 C.3     1  UNL1        0.0173
     30 C         143.3980  140.6585  165.1096 C.3     1  UNL1        0.0015
     31 C         143.4529  142.0349  165.7033 C.3     1  UNL1        0.0015
     32 C         143.1926  142.4534  167.1200 C.3     1  UNL1        0.0173
     33 C         142.8131  141.5988  168.2929 C.3     1  UNL1        0.0721
@<TRIPOS>BOND
     1     7     8    2
     2     8    16    1
     3    16    17   ar
     4    17    18   ar
     5    18    19   ar
     6    19    20    1
     7    19    21   ar
     8    21    22   ar
     9     8     9   am
    10     9    10    1
    11    10    11    1
    12    11    12    1
    13    12     1    1
    14     1     2   ar
    15     2     3   ar
    16     3     4   ar
    17     4    23    1
    18    23    24    1
    19    24    25    1
    20    25    26    1
    21    26    27    1
    22    27    28    1
    23    28    29    1
    24    29    30    1
    25    30    31    1
    26    31    32    1
    27    32    33    1
    28     4     5   ar
    29     5     6   ar
    30    12    13   am
    31    13    14    2
    32    13    15    1
    33    22    16   ar
    34    15     9    1
    35     6     1   ar
    36    33    27    1
@<TRIPOS>MOLECULE
*****
 33 36 0 0 0
SMALL
GASTEIGER

@<TRIPOS>ATOM
      1 C         140.5209  140.8805  159.2770 C.ar    1  UNL1        0.0541
      2 C         139.2899  141.5102  158.6956 C.ar    1  UNL1        0.0180
      3 C         138.5107  142.5120  159.4951 C.ar    1  UNL1        0.0382
      4 C         138.9624  142.8840  160.8762 C.ar    1  UNL1        0.1386
      5 C         140.1935  142.2544  161.4578 C.ar    1  UNL1        0.0382
      6 C         140.9727  141.2526  160.6581 C.ar    1  UNL1        0.0180
      7 O         144.9179  137.2796  155.4106 O.2     1  UNL1       -0.2699
      8 C         143.6377  136.8735  156.0786 C.2     1  UNL1        0.2494
      9 N         142.8585  137.8753  156.8783 N.am    1  UNL1       -0.2660
     10 C         143.3595  139.2830  157.0098 C.3     1  UNL1        0.1160
     11 C         142.5802  140.2848  157.8094 C.3     1  UNL1        0.1197
     12 N         141.3001  139.8788  158.4775 N.am    1  UNL1       -0.2555
     13 C         140.7991  138.4711  158.3459 C.2     1  UNL1        0.2497
     14 O         139.5189  138.0651  159.0140 O.2     1  UNL1       -0.2727
     15 C         141.5783  137.4693  157.5463 C.3     1  UNL1        0.1799
     16 C         143.1367  135.4658  155.9471 C.ar    1  UNL1        0.0537
     17 C         142.2711  135.0835  154.7834 C.ar    1  UNL1        0.0068
     18 C         141.7700  133.6757  154.6519 C.ar    1  UNL1        0.0298
     19 C         142.1348  132.6503  155.6842 C.ar    1  UNL1        0.1401
     20 F         141.6338  131.2427  155.5527 F       1  UNL1       -0.2042
     21 C         143.0005  133.0327  156.8480 C.ar    1  UNL1        0.0298
     22 C         143.5014  134.4405  156.9794 C.ar    1  UNL1        0.0068
     23 O         138.1833  143.8858  161.6759 O.3     1  UNL1       -0.4754
     24 C         138.1061  143.7573  163.1683 C.3     1  UNL1        0.2068
     25 C         137.4404  142.5628  163.7849 C.3     1  UNL1        0.0646
     26 C         138.2099  141.6719  164.7144 C.3     1  UNL1        0.0759
     27 N         138.9468  140.4822  164.1745 N.3     1  UNL1       -0.2726
     28 C         140.3238  140.2634  164.7280 C.3     1  UNL1        0.0721
     29 C         141.3034  139.1770  164.3962 C.3     1  UNL1        0.0173
     30 C         141.1480  138.0411  163.4290 C.3     1  UNL1        0.0015
     31 C         139.9748  137.7110  162.5546 C.3     1  UNL1        0.0015
     32 C         138.6670  138.4353  162.4316 C.3     1  UNL1        0.0173
     33 C         138.2096  139.6687  163.1526 C.3     1  UNL1        0.0721
@<TRIPOS>BOND
     1     7     8    2
     2     8    16    1
     3    16    17   ar
     4    17    18   ar
     5    18    19   ar
     6    19    20    1
     7    19    21   ar
     8    21    22   ar
     9     8     9   am
    10     9    10    1
    11    10    11    1
    12    11    12    1
    13    12     1    1
    14     1     2   ar
    15     2     3   ar
    16     3     4   ar
    17     4    23    1
    18    23    24    1
    19    24    25    1
    20    25    26    1
    21    26    27    1
    22    27    28    1
    23    28    29    1
    24    29    30    1
    25    30    31    1
    26    31    32    1
    27    32    33    1
    28     4     5   ar
    29     5     6   ar
    30    12    13   am
    31    13    14    2
    32    13    15    1
    33    22    16   ar
    34    15     9    1
    35     6     1   ar
    36    33    27    1
