@<TRIPOS>MOLECULE
*****
 27 30 0 0 0
SMALL
GASTEIGER

@<TRIPOS>ATOM
      1 C         140.6698  137.1686  163.6036 C.3     1  UNL1        0.0723
      2 C         141.0666  137.6993  162.2579 C.3     1  UNL1        0.0191
      3 C         139.9366  138.0077  161.3209 C.3     1  UNL1        0.0062
      4 C         140.0019  138.5444  159.9218 C.3     1  UNL1        0.0277
      5 C         141.2132  138.9052  159.1140 C.ar    1  UNL1       -0.0063
      6 C         140.8342  139.4082  157.7526 C.ar    1  UNL1       -0.0014
      7 C         141.9004  139.8244  156.7832 C.ar    1  UNL1        0.0203
      8 C         143.3457  139.7377  157.1752 C.ar    1  UNL1        0.0985
      9 N         143.7248  139.2347  158.5365 N.ar    1  UNL1       -0.2461
     10 C         142.6585  138.8185  159.5059 C.ar    1  UNL1        0.0817
     11 C         143.2493  138.3495  160.8025 C.3     1  UNL1        0.1498
     12 O         144.7467  138.3830  160.8851 O.3     1  UNL1       -0.3785
     13 C         142.5410  137.8514  162.0272 C.3     1  UNL1        0.0368
     14 H         145.1092  138.7175  160.0499 H       1  UNL1        0.2108
     15 N         140.5047  139.9308  167.1523 N.pl3   1  UNL1       -0.3049
     16 C         139.2363  139.5016  166.4763 C.3     1  UNL1        0.1081
     17 C         139.2913  138.5808  165.2934 C.3     1  UNL1        0.0938
     18 N         140.6148  138.0893  164.7865 N.3     1  UNL1       -0.2698
     19 C         141.8832  138.5185  165.4625 C.3     1  UNL1        0.0938
     20 C         141.8281  139.4393  166.6454 C.3     1  UNL1        0.1081
     21 C         140.4155  142.9007  166.7384 C.3     1  UNL1        0.0323
     22 C         140.4050  142.3365  168.1283 C.ar    1  UNL1       -0.0085
     23 C         140.3500  143.2573  169.3111 C.ar    1  UNL1       -0.0030
     24 C         140.3396  142.6930  170.7009 C.ar    1  UNL1       -0.0002
     25 C         140.3842  141.2081  170.9078 C.ar    1  UNL1        0.0012
     26 C         140.4392  140.2873  169.7250 C.ar    1  UNL1        0.0142
     27 C         140.4496  140.8515  168.3352 C.ar    1  UNL1        0.0439
@<TRIPOS>BOND
     1    21    22    1
     2    22    23   ar
     3    23    24   ar
     4    24    25   ar
     5    25    26   ar
     6    26    27   ar
     7    27    15    1
     8    15    16    1
     9    16    17    1
    10    17    18    1
    11    18     1    1
    12     2     1    1
    13     2     3    1
    14     3     4    1
    15     4     5    1
    16     5     6   ar
    17     6     7   ar
    18     7     8   ar
    19     8     9   ar
    20     9    10   ar
    21    10    11    1
    22    11    12    1
    23    11    13    1
    24    18    19    1
    25    19    20    1
    26    27    22   ar
    27    20    15    1
    28    13     2    1
    29    10     5   ar
    30    12    14    1
@<TRIPOS>MOLECULE
*****
 27 30 0 0 0
SMALL
GASTEIGER

@<TRIPOS>ATOM
      1 C         140.4303  137.3427  163.4206 C.3     1  UNL1        0.0723
      2 C         140.1625  137.9870  162.0927 C.3     1  UNL1        0.0191
      3 C         141.3353  138.0695  161.1611 C.3     1  UNL1        0.0062
      4 C         141.3925  138.6490  159.7787 C.3     1  UNL1        0.0277
      5 C         140.2912  139.2889  158.9864 C.ar    1  UNL1       -0.0063
      6 C         140.7746  139.7375  157.6392 C.ar    1  UNL1       -0.0014
      7 C         139.8274  140.4047  156.6865 C.ar    1  UNL1        0.0203
      8 C         138.3968  140.6233  157.0811 C.ar    1  UNL1        0.0985
      9 N         137.9134  140.1747  158.4283 N.ar    1  UNL1       -0.2461
     10 C         138.8606  139.5075  159.3810 C.ar    1  UNL1        0.0817
     11 C         138.1780  139.1401  160.6652 C.3     1  UNL1        0.1498
     12 O         136.7237  139.4965  160.7543 O.3     1  UNL1       -0.3785
     13 C         138.7574  138.4634  161.8720 C.3     1  UNL1        0.0368
     14 H         136.4452  139.9266  159.9307 H       1  UNL1        0.2108
     15 N         140.5211  139.8465  167.1586 N.pl3   1  UNL1       -0.3049
     16 C         141.8026  139.4757  166.4730 C.3     1  UNL1        0.1081
     17 C         141.7724  138.6411  165.2269 C.3     1  UNL1        0.0938
     18 N         140.4606  138.1773  164.6665 N.3     1  UNL1       -0.2698
     19 C         139.1790  138.5482  165.3522 C.3     1  UNL1        0.0938
     20 C         139.2093  139.3828  166.5982 C.3     1  UNL1        0.1081
     21 C         140.4239  142.8385  166.9626 C.3     1  UNL1        0.0323
     22 C         140.5027  142.1771  168.3066 C.ar    1  UNL1       -0.0085
     23 C         140.5330  143.0117  169.5526 C.ar    1  UNL1       -0.0030
     24 C         140.6118  142.3503  170.8966 C.ar    1  UNL1       -0.0002
     25 C         140.6604  140.8543  170.9946 C.ar    1  UNL1        0.0012
     26 C         140.6302  140.0197  169.7486 C.ar    1  UNL1        0.0142
     27 C         140.5513  140.6811  168.4046 C.ar    1  UNL1        0.0439
@<TRIPOS>BOND
     1    21    22    1
     2    22    23   ar
     3    23    24   ar
     4    24    25   ar
     5    25    26   ar
     6    26    27   ar
     7    27    15    1
     8    15    16    1
     9    16    17    1
    10    17    18    1
    11    18     1    1
    12     2     1    1
    13     2     3    1
    14     3     4    1
    15     4     5    1
    16     5     6   ar
    17     6     7   ar
    18     7     8   ar
    19     8     9   ar
    20     9    10   ar
    21    10    11    1
    22    11    12    1
    23    11    13    1
    24    18    19    1
    25    19    20    1
    26    27    22   ar
    27    20    15    1
    28    13     2    1
    29    10     5   ar
    30    12    14    1
@<TRIPOS>MOLECULE
*****
 27 30 0 0 0
SMALL
GASTEIGER

@<TRIPOS>ATOM
      1 C         137.6760  142.4273  162.9067 C.3     1  UNL1        0.0723
      2 C         138.4654  142.9634  161.7495 C.3     1  UNL1        0.0191
      3 C         138.3667  142.1785  160.4750 C.3     1  UNL1        0.0062
      4 C         139.0274  142.4500  159.1560 C.3     1  UNL1        0.0277
      5 C         139.9500  143.5733  158.7856 C.ar    1  UNL1       -0.0063
      6 C         140.3888  143.4729  157.3548 C.ar    1  UNL1       -0.0014
      7 C         141.3174  144.5018  156.7812 C.ar    1  UNL1        0.0203
      8 C         141.8071  145.6311  157.6385 C.ar    1  UNL1        0.0985
      9 N         141.3683  145.7314  159.0693 N.ar    1  UNL1       -0.2461
     10 C         140.4398  144.7025  159.6429 C.ar    1  UNL1        0.0817
     11 C         140.1279  144.9874  161.0822 C.3     1  UNL1        0.1498
     12 O         140.7811  146.2076  161.6604 O.3     1  UNL1       -0.3785
     13 C         139.2492  144.2135  162.0197 C.3     1  UNL1        0.0368
     14 H         141.3247  146.6361  160.9809 H       1  UNL1        0.2108
     15 N         139.8042  140.8563  166.5472 N.pl3   1  UNL1       -0.3049
     16 C         139.9706  142.2908  166.1419 C.3     1  UNL1        0.1081
     17 C         139.2612  142.8146  164.9284 C.3     1  UNL1        0.0938
     18 N         138.3854  141.9036  164.1202 N.3     1  UNL1       -0.2698
     19 C         138.2190  140.4690  164.5255 C.3     1  UNL1        0.0938
     20 C         138.9284  139.9453  165.7389 C.3     1  UNL1        0.1081
     21 C         142.5736  139.7305  166.2964 C.3     1  UNL1        0.0323
     22 C         141.8983  139.7697  167.6353 C.ar    1  UNL1       -0.0085
     23 C         142.6077  139.2460  168.8487 C.ar    1  UNL1       -0.0030
     24 C         141.9324  139.2851  170.1875 C.ar    1  UNL1       -0.0002
     25 C         140.5477  139.8480  170.3129 C.ar    1  UNL1        0.0012
     26 C         139.8383  140.3717  169.0994 C.ar    1  UNL1        0.0142
     27 C         140.5136  140.3325  167.7607 C.ar    1  UNL1        0.0439
@<TRIPOS>BOND
     1    21    22    1
     2    22    23   ar
     3    23    24   ar
     4    24    25   ar
     5    25    26   ar
     6    26    27   ar
     7    27    15    1
     8    15    16    1
     9    16    17    1
    10    17    18    1
    11    18     1    1
    12     2     1    1
    13     2     3    1
    14     3     4    1
    15     4     5    1
    16     5     6   ar
    17     6     7   ar
    18     7     8   ar
    19     8     9   ar
    20     9    10   ar
    21    10    11    1
    22    11    12    1
    23    11    13    1
    24    18    19    1
    25    19    20    1
    26    27    22   ar
    27    20    15    1
    28    13     2    1
    29    10     5   ar
    30    12    14    1
@<TRIPOS>MOLECULE
*****
 27 30 0 0 0
SMALL
GASTEIGER

@<TRIPOS>ATOM
      1 C         137.3630  141.7592  163.1857 C.3     1  UNL1        0.0723
      2 C         137.8902  141.2543  161.8753 C.3     1  UNL1        0.0191
      3 C         138.0736  142.2894  160.8052 C.3     1  UNL1        0.0062
      4 C         138.5764  142.1068  159.4039 C.3     1  UNL1        0.0277
      5 C         139.0200  140.8441  158.7263 C.ar    1  UNL1       -0.0063
      6 C         139.4514  141.1028  157.3132 C.ar    1  UNL1       -0.0014
      7 C         139.9331  139.9695  156.4568 C.ar    1  UNL1        0.0203
      8 C         139.9833  138.5776  157.0134 C.ar    1  UNL1        0.0985
      9 N         139.5520  138.3188  158.4265 N.ar    1  UNL1       -0.2461
     10 C         139.0703  139.4521  159.2830 C.ar    1  UNL1        0.0817
     11 C         138.6894  138.9790  160.6545 C.3     1  UNL1        0.1498
     12 O         138.8558  137.5096  160.9056 O.3     1  UNL1       -0.3785
     13 C         138.1643  139.7810  161.8083 C.3     1  UNL1        0.0368
     14 H         139.1982  137.0816  160.1053 H       1  UNL1        0.2108
     15 N         140.1558  142.3172  166.6698 N.pl3   1  UNL1       -0.3049
     16 C         139.8538  143.4698  165.7586 C.3     1  UNL1        0.1081
     17 C         138.9229  143.2838  164.5972 C.3     1  UNL1        0.0938
     18 N         138.2939  141.9452  164.3470 N.3     1  UNL1       -0.2698
     19 C         138.5959  140.7926  165.2583 C.3     1  UNL1        0.0938
     20 C         139.5268  140.9786  166.4196 C.3     1  UNL1        0.1081
     21 C         143.0509  141.5769  166.4050 C.3     1  UNL1        0.0323
     22 C         142.5343  142.1330  167.6989 C.ar    1  UNL1       -0.0085
     23 C         143.4652  142.3190  168.8602 C.ar    1  UNL1       -0.0030
     24 C         142.9485  142.8751  170.1539 C.ar    1  UNL1       -0.0002
     25 C         141.5010  143.2453  170.2863 C.ar    1  UNL1        0.0012
     26 C         140.5701  143.0593  169.1250 C.ar    1  UNL1        0.0142
     27 C         141.0867  142.5032  167.8312 C.ar    1  UNL1        0.0439
@<TRIPOS>BOND
     1    21    22    1
     2    22    23   ar
     3    23    24   ar
     4    24    25   ar
     5    25    26   ar
     6    26    27   ar
     7    27    15    1
     8    15    16    1
     9    16    17    1
    10    17    18    1
    11    18     1    1
    12     2     1    1
    13     2     3    1
    14     3     4    1
    15     4     5    1
    16     5     6   ar
    17     6     7   ar
    18     7     8   ar
    19     8     9   ar
    20     9    10   ar
    21    10    11    1
    22    11    12    1
    23    11    13    1
    24    18    19    1
    25    19    20    1
    26    27    22   ar
    27    20    15    1
    28    13     2    1
    29    10     5   ar
    30    12    14    1
@<TRIPOS>MOLECULE
*****
 27 30 0 0 0
SMALL
GASTEIGER

@<TRIPOS>ATOM
      1 C         137.9958  143.7019  163.4286 C.3     1  UNL1        0.0723
      2 C         138.6640  143.8611  162.0950 C.3     1  UNL1        0.0191
      3 C         139.5390  145.0703  161.9457 C.3     1  UNL1        0.0062
      4 C         140.3348  145.5069  160.7515 C.3     1  UNL1        0.0277
      5 C         140.4523  144.8424  159.4119 C.ar    1  UNL1       -0.0063
      6 C         141.3556  145.6129  158.4952 C.ar    1  UNL1       -0.0014
      7 C         141.6094  145.1180  157.1022 C.ar    1  UNL1        0.0203
      8 C         140.9600  143.8526  156.6258 C.ar    1  UNL1        0.0985
      9 N         140.0567  143.0821  157.5425 N.ar    1  UNL1       -0.2461
     10 C         139.8028  143.5770  158.9355 C.ar    1  UNL1        0.0817
     11 C         138.8756  142.6636  159.6812 C.3     1  UNL1        0.1498
     12 O         138.3911  141.4653  158.9200 O.3     1  UNL1       -0.3785
     13 C         138.3687  142.7900  161.0872 C.3     1  UNL1        0.0368
     14 H         138.7719  141.4733  158.0279 H       1  UNL1        0.2108
     15 N         140.0581  141.4324  166.7219 N.pl3   1  UNL1       -0.3049
     16 C         139.1109  140.7222  165.8008 C.3     1  UNL1        0.1081
     17 C         138.4235  141.4787  164.7030 C.3     1  UNL1        0.0938
     18 N         138.6832  142.9454  164.5263 N.3     1  UNL1       -0.2698
     19 C         139.6305  143.6556  165.4474 C.3     1  UNL1        0.0938
     20 C         140.3179  142.8991  166.5452 C.3     1  UNL1        0.1081
     21 C         142.6812  140.0757  166.1939 C.3     1  UNL1        0.0323
     22 C         142.0571  139.9975  167.5557 C.ar    1  UNL1       -0.0085
     23 C         142.7446  139.2410  168.6534 C.ar    1  UNL1       -0.0030
     24 C         142.1205  139.1629  170.0152 C.ar    1  UNL1       -0.0002
     25 C         140.8090  139.8412  170.2792 C.ar    1  UNL1        0.0012
     26 C         140.1215  140.5977  169.1814 C.ar    1  UNL1        0.0142
     27 C         140.7456  140.6759  167.8197 C.ar    1  UNL1        0.0439
@<TRIPOS>BOND
     1    21    22    1
     2    22    23   ar
     3    23    24   ar
     4    24    25   ar
     5    25    26   ar
     6    26    27   ar
     7    27    15    1
     8    15    16    1
     9    16    17    1
    10    17    18    1
    11    18     1    1
    12     2     1    1
    13     2     3    1
    14     3     4    1
    15     4     5    1
    16     5     6   ar
    17     6     7   ar
    18     7     8   ar
    19     8     9   ar
    20     9    10   ar
    21    10    11    1
    22    11    12    1
    23    11    13    1
    24    18    19    1
    25    19    20    1
    26    27    22   ar
    27    20    15    1
    28    13     2    1
    29    10     5   ar
    30    12    14    1
@<TRIPOS>MOLECULE
*****
 27 30 0 0 0
SMALL
GASTEIGER

@<TRIPOS>ATOM
      1 C         139.4381  137.8375  163.0578 C.3     1  UNL1        0.0723
      2 C         139.5309  138.4577  164.4204 C.3     1  UNL1        0.0191
      3 C         140.7193  139.3429  164.6529 C.3     1  UNL1        0.0062
      4 C         141.0933  140.0997  165.8928 C.3     1  UNL1        0.0277
      5 C         140.3713  140.1584  167.2063 C.ar    1  UNL1       -0.0063
      6 C         141.0888  141.0374  168.1873 C.ar    1  UNL1       -0.0014
      7 C         140.5320  141.2327  169.5664 C.ar    1  UNL1        0.0203
      8 C         139.2576  140.5490  169.9644 C.ar    1  UNL1        0.0985
      9 N         138.5400  139.6699  168.9834 N.ar    1  UNL1       -0.2461
     10 C         139.0969  139.4747  167.6044 C.ar    1  UNL1        0.0817
     11 C         138.2298  138.5634  166.7871 C.3     1  UNL1        0.1498
     12 O         137.0080  138.0348  167.4784 O.3     1  UNL1       -0.3785
     13 C         138.4229  138.1108  165.3702 C.3     1  UNL1        0.0368
     14 H         136.9727  138.3823  168.3833 H       1  UNL1        0.2108
     15 N         138.5485  140.4066  159.4719 N.pl3   1  UNL1       -0.3049
     16 C         139.6133  139.3530  159.3941 C.3     1  UNL1        0.1081
     17 C         139.9099  138.4966  160.5894 C.3     1  UNL1        0.0938
     18 N         139.1416  138.6938  161.8625 N.3     1  UNL1       -0.2698
     19 C         138.0767  139.7474  161.9403 C.3     1  UNL1        0.0938
     20 C         137.7801  140.6038  160.7450 C.3     1  UNL1        0.1081
     21 C         140.1759  142.8728  158.9528 C.3     1  UNL1        0.0323
     22 C         139.0656  142.4961  158.0171 C.ar    1  UNL1       -0.0085
     23 C         138.7691  143.3525  156.8218 C.ar    1  UNL1       -0.0030
     24 C         137.6589  142.9758  155.8862 C.ar    1  UNL1       -0.0002
     25 C         136.8452  141.7427  156.1458 C.ar    1  UNL1        0.0012
     26 C         137.1417  140.8863  157.3410 C.ar    1  UNL1        0.0142
     27 C         138.2519  141.2630  158.2766 C.ar    1  UNL1        0.0439
@<TRIPOS>BOND
     1    21    22    1
     2    22    23   ar
     3    23    24   ar
     4    24    25   ar
     5    25    26   ar
     6    26    27   ar
     7    27    15    1
     8    15    16    1
     9    16    17    1
    10    17    18    1
    11    18     1    1
    12     2     1    1
    13     2     3    1
    14     3     4    1
    15     4     5    1
    16     5     6   ar
    17     6     7   ar
    18     7     8   ar
    19     8     9   ar
    20     9    10   ar
    21    10    11    1
    22    11    12    1
    23    11    13    1
    24    18    19    1
    25    19    20    1
    26    27    22   ar
    27    20    15    1
    28    13     2    1
    29    10     5   ar
    30    12    14    1
@<TRIPOS>MOLECULE
*****
 27 30 0 0 0
SMALL
GASTEIGER

@<TRIPOS>ATOM
      1 C         138.9932  139.3015  162.9437 C.3     1  UNL1        0.0723
      2 C         139.1917  139.6506  164.3889 C.3     1  UNL1        0.0191
      3 C         140.2013  140.7247  164.6663 C.3     1  UNL1        0.0062
      4 C         140.6228  141.2929  165.9890 C.3     1  UNL1        0.0277
      5 C         140.1389  140.9273  167.3610 C.ar    1  UNL1       -0.0063
      6 C         140.8233  141.7416  168.4185 C.ar    1  UNL1       -0.0014
      7 C         140.4826  141.5319  169.8642 C.ar    1  UNL1        0.0203
      8 C         139.4576  140.5078  170.2522 C.ar    1  UNL1        0.0985
      9 N         138.7732  139.6935  169.1947 N.ar    1  UNL1       -0.2461
     10 C         139.1139  139.9032  167.7491 C.ar    1  UNL1        0.0817
     11 C         138.3196  138.9918  166.8610 C.3     1  UNL1        0.1498
     12 O         137.3645  138.0711  167.5610 O.3     1  UNL1       -0.3785
     13 C         138.3542  138.8794  165.3656 C.3     1  UNL1        0.0368
     14 H         137.4156  138.2191  168.5183 H       1  UNL1        0.2108
     15 N         139.4663  142.4658  159.7792 N.pl3   1  UNL1       -0.3049
     16 C         138.2686  142.4812  160.6821 C.3     1  UNL1        0.1081
     17 C         138.1109  141.4265  161.7370 C.3     1  UNL1        0.0938
     18 N         139.1509  140.3563  161.8889 N.3     1  UNL1       -0.2698
     19 C         140.3486  140.3408  160.9859 C.3     1  UNL1        0.0938
     20 C         140.5063  141.3955  159.9311 C.3     1  UNL1        0.1081
     21 C         140.8644  145.0394  160.4287 C.3     1  UNL1        0.0323
     22 C         140.3231  144.8073  159.0491 C.ar    1  UNL1       -0.0085
     23 C         140.4808  145.8621  157.9943 C.ar    1  UNL1       -0.0030
     24 C         139.9395  145.6300  156.6148 C.ar    1  UNL1       -0.0002
     25 C         139.2405  144.3432  156.2901 C.ar    1  UNL1        0.0012
     26 C         139.0827  143.2884  157.3448 C.ar    1  UNL1        0.0142
     27 C         139.6240  143.5205  158.7243 C.ar    1  UNL1        0.0439
@<TRIPOS>BOND
     1    21    22    1
     2    22    23   ar
     3    23    24   ar
     4    24    25   ar
     5    25    26   ar
     6    26    27   ar
     7    27    15    1
     8    15    16    1
     9    16    17    1
    10    17    18    1
    11    18     1    1
    12     2     1    1
    13     2     3    1
    14     3     4    1
    15     4     5    1
    16     5     6   ar
    17     6     7   ar
    18     7     8   ar
    19     8     9   ar
    20     9    10   ar
    21    10    11    1
    22    11    12    1
    23    11    13    1
    24    18    19    1
    25    19    20    1
    26    27    22   ar
    27    20    15    1
    28    13     2    1
    29    10     5   ar
    30    12    14    1
@<TRIPOS>MOLECULE
*****
 27 30 0 0 0
SMALL
GASTEIGER

@<TRIPOS>ATOM
      1 C         138.5161  138.8020  163.5295 C.3     1  UNL1        0.0723
      2 C         138.5605  139.4725  162.1884 C.3     1  UNL1        0.0191
      3 C         139.0167  138.6137  161.0462 C.3     1  UNL1        0.0062
      4 C         139.1679  138.9835  159.6004 C.3     1  UNL1        0.0277
      5 C         138.9004  140.3033  158.9396 C.ar    1  UNL1       -0.0063
      6 C         139.1813  140.2459  157.4673 C.ar    1  UNL1       -0.0014
      7 C         138.9774  141.4645  156.6168 C.ar    1  UNL1        0.0203
      8 C         138.4925  142.7405  157.2387 C.ar    1  UNL1        0.0985
      9 N         138.2116  142.7979  158.7110 N.ar    1  UNL1       -0.2461
     10 C         138.4155  141.5793  159.5614 C.ar    1  UNL1        0.0817
     11 C         138.0785  141.8506  160.9977 C.3     1  UNL1        0.1498
     12 O         137.6156  143.2438  161.3055 O.3     1  UNL1       -0.3785
     13 C         138.1430  140.9131  162.1668 C.3     1  UNL1        0.0368
     14 H         137.6081  143.7695  160.4904 H       1  UNL1        0.2108
     15 N         140.5504  140.7036  167.0643 N.pl3   1  UNL1       -0.3049
     16 C         141.1350  140.8556  165.6914 C.3     1  UNL1        0.1081
     17 C         140.4569  140.2217  164.5130 C.3     1  UNL1        0.0938
     18 N         139.1942  139.4359  164.7077 N.3     1  UNL1       -0.2698
     19 C         138.6095  139.2840  166.0808 C.3     1  UNL1        0.0938
     20 C         139.2876  139.9178  167.2590 C.3     1  UNL1        0.1081
     21 C         142.7661  139.2565  168.4772 C.3     1  UNL1        0.0323
     22 C         142.3364  140.6139  168.9491 C.ar    1  UNL1       -0.0085
     23 C         143.0145  141.2477  170.1274 C.ar    1  UNL1       -0.0030
     24 C         142.5847  142.6051  170.5993 C.ar    1  UNL1       -0.0002
     25 C         141.4768  143.3287  169.8928 C.ar    1  UNL1        0.0012
     26 C         140.7987  142.6949  168.7146 C.ar    1  UNL1        0.0142
     27 C         141.2285  141.3375  168.2427 C.ar    1  UNL1        0.0439
@<TRIPOS>BOND
     1    21    22    1
     2    22    23   ar
     3    23    24   ar
     4    24    25   ar
     5    25    26   ar
     6    26    27   ar
     7    27    15    1
     8    15    16    1
     9    16    17    1
    10    17    18    1
    11    18     1    1
    12     2     1    1
    13     2     3    1
    14     3     4    1
    15     4     5    1
    16     5     6   ar
    17     6     7   ar
    18     7     8   ar
    19     8     9   ar
    20     9    10   ar
    21    10    11    1
    22    11    12    1
    23    11    13    1
    24    18    19    1
    25    19    20    1
    26    27    22   ar
    27    20    15    1
    28    13     2    1
    29    10     5   ar
    30    12    14    1
@<TRIPOS>MOLECULE
*****
 27 30 0 0 0
SMALL
GASTEIGER

@<TRIPOS>ATOM
      1 C         137.7912  140.8956  163.2873 C.3     1  UNL1        0.0723
      2 C         138.4476  140.9106  164.6359 C.3     1  UNL1        0.0191
      3 C         139.4277  142.0217  164.8704 C.3     1  UNL1        0.0062
      4 C         140.2394  142.3091  166.0986 C.3     1  UNL1        0.0277
      5 C         140.2716  141.5564  167.3957 C.ar    1  UNL1       -0.0063
      6 C         141.2259  142.1824  168.3690 C.ar    1  UNL1       -0.0014
      7 C         141.4086  141.5823  169.7315 C.ar    1  UNL1        0.0203
      8 C         140.6370  140.3563  170.1208 C.ar    1  UNL1        0.0985
      9 N         139.6827  139.7303  169.1475 N.ar    1  UNL1       -0.2461
     10 C         139.5000  140.3304  167.7849 C.ar    1  UNL1        0.0817
     11 C         138.5056  139.5543  166.9731 C.3     1  UNL1        0.1498
     12 O         137.8994  138.3623  167.6527 O.3     1  UNL1       -0.3785
     13 C         138.0372  139.8124  165.5717 C.3     1  UNL1        0.0368
     14 H         138.2637  138.2806  168.5480 H       1  UNL1        0.2108
     15 N         139.8804  138.9861  159.7889 N.pl3   1  UNL1       -0.3049
     16 C         139.2821  138.1286  160.8643 C.3     1  UNL1        0.1081
     17 C         138.5857  138.7651  162.0305 C.3     1  UNL1        0.0938
     18 N         138.4876  140.2591  162.1212 N.3     1  UNL1       -0.2698
     19 C         139.0860  141.1167  161.0457 C.3     1  UNL1        0.0938
     20 C         139.7824  140.4802  159.8796 C.3     1  UNL1        0.1081
     21 C         142.8418  138.5157  159.8848 C.3     1  UNL1        0.0323
     22 C         142.0576  138.1144  158.6707 C.ar    1  UNL1       -0.0085
     23 C         142.7540  137.4780  157.5046 C.ar    1  UNL1       -0.0030
     24 C         141.9698  137.0768  156.2905 C.ar    1  UNL1       -0.0002
     25 C         140.4892  137.3120  156.2425 C.ar    1  UNL1        0.0012
     26 C         139.7927  137.9484  157.4086 C.ar    1  UNL1        0.0142
     27 C         140.5769  138.3497  158.6227 C.ar    1  UNL1        0.0439
@<TRIPOS>BOND
     1    21    22    1
     2    22    23   ar
     3    23    24   ar
     4    24    25   ar
     5    25    26   ar
     6    26    27   ar
     7    27    15    1
     8    15    16    1
     9    16    17    1
    10    17    18    1
    11    18     1    1
    12     2     1    1
    13     2     3    1
    14     3     4    1
    15     4     5    1
    16     5     6   ar
    17     6     7   ar
    18     7     8   ar
    19     8     9   ar
    20     9    10   ar
    21    10    11    1
    22    11    12    1
    23    11    13    1
    24    18    19    1
    25    19    20    1
    26    27    22   ar
    27    20    15    1
    28    13     2    1
    29    10     5   ar
    30    12    14    1
