@<TRIPOS>MOLECULE
*****
 30 34 0 0 0
SMALL
GASTEIGER

@<TRIPOS>ATOM
      1 C         142.6770  138.9958  166.0937 C.3     1  UNL1        0.0545
      2 C         142.8995  139.4001  167.5210 C.3     1  UNL1        0.0162
      3 C         141.5710  139.7717  168.1099 C.3     1  UNL1        0.0095
      4 C         140.8875  140.2513  169.3560 C.3     1  UNL1        0.0005
      5 C         139.4214  140.3731  169.0629 C.3     1  UNL1        0.0005
      6 C         139.1990  139.9688  167.6357 C.3     1  UNL1        0.0087
      7 C         140.5275  139.5971  167.0467 C.3     1  UNL1        0.0704
      8 C         141.2110  139.1176  165.8007 C.3     1  UNL1        0.0243
      9 C         139.4839  139.4225  165.9834 C.2     1  UNL1        0.2250
     10 O         138.7471  138.1216  165.8621 O.2     1  UNL1       -0.2749
     11 N         139.1771  140.5489  165.0415 N.am    1  UNL1       -0.2750
     12 C         138.1336  140.3743  163.9782 C.3     1  UNL1        0.1000
     13 C         137.8268  141.5006  163.0363 C.3     1  UNL1        0.0670
     14 C         138.5636  142.8016  163.1576 C.ar    1  UNL1        0.0583
     15 N         138.2569  143.9279  162.2156 N.ar    1  UNL1       -0.2484
     16 C         138.9937  145.2288  162.3369 C.ar    1  UNL1        0.0984
     17 C         140.0372  145.4034  163.4002 C.ar    1  UNL1        0.0204
     18 C         140.3440  144.2771  164.3421 C.ar    1  UNL1        0.0002
     19 C         139.6072  142.9762  164.2208 C.ar    1  UNL1        0.0113
     20 C         139.9139  141.8498  165.1628 C.3     1  UNL1        0.1213
     21 N         143.7348  138.5482  165.1290 N.3     1  UNL1       -0.2975
     22 H         144.5652  138.3339  165.6811 H       1  UNL1        0.1232
     23 C         143.8291  139.1329  162.5993 C.3     1  UNL1        0.1591
     24 C         144.2687  140.0447  161.4923 C.3     1  UNL1        0.1729
     25 O         145.0536  141.2834  161.8079 O.3     1  UNL1       -0.3511
     26 C         145.3989  141.6103  163.2305 C.3     1  UNL1        0.1437
     27 C         144.9593  140.6986  164.3375 C.3     1  UNL1        0.0503
     28 C         144.1744  139.4599  164.0219 C.3     1  UNL1        0.0865
     29 C         141.5449  137.9394  162.2708 C.3     1  UNL1        0.1742
     30 O         143.0442  137.8943  162.2837 O.3     1  UNL1       -0.3496
@<TRIPOS>BOND
     1    29    30    1
     2    30    23    1
     3    23    24    1
     4    24    25    1
     5    25    26    1
     6    26    27    1
     7    27    28    1
     8    28    21    1
     9     1    21    1
    10     1     2    1
    11     3     2    1
    12     3     4    1
    13     4     5    1
    14     5     6    1
    15     6     7    1
    16     7     9    1
    17     9    10    2
    18     9    11   am
    19    11    12    1
    20    12    13    1
    21    13    14    1
    22    14    15   ar
    23    15    16   ar
    24    16    17   ar
    25    17    18   ar
    26    18    19   ar
    27    19    20    1
    28     7     8    1
    29    28    23    1
    30     8     1    1
    31     7     3    1
    32    20    11    1
    33    19    14   ar
    34    21    22    1
@<TRIPOS>MOLECULE
*****
 30 34 0 0 0
SMALL
GASTEIGER

@<TRIPOS>ATOM
      1 C         141.9047  140.5197  166.7023 C.3     1  UNL1        0.0545
      2 C         142.5914  139.2870  166.1934 C.3     1  UNL1        0.0162
      3 C         141.6463  138.5778  165.2696 C.3     1  UNL1        0.0095
      4 C         141.4866  137.3776  164.3841 C.3     1  UNL1        0.0005
      5 C         140.1170  137.4301  163.7747 C.3     1  UNL1        0.0005
      6 C         139.4302  138.6627  164.2836 C.3     1  UNL1        0.0087
      7 C         140.3754  139.3720  165.2075 C.3     1  UNL1        0.0704
      8 C         140.5350  140.5721  166.0929 C.3     1  UNL1        0.0243
      9 C         139.1044  140.1663  165.1453 C.2     1  UNL1        0.2250
     10 O         137.8878  139.6937  165.8846 O.2     1  UNL1       -0.2749
     11 N         139.0501  141.4331  164.3439 N.am    1  UNL1       -0.2750
     12 C         137.7792  142.2274  164.2818 C.3     1  UNL1        0.1000
     13 C         137.7248  143.4942  163.4804 C.3     1  UNL1        0.0670
     14 C         138.9415  143.9668  162.7411 C.ar    1  UNL1        0.0583
     15 N         138.8871  145.2336  161.9398 N.ar    1  UNL1       -0.2484
     16 C         140.1038  145.7061  161.2005 C.ar    1  UNL1        0.0984
     17 C         141.3747  144.9119  161.2627 C.ar    1  UNL1        0.0204
     18 C         141.4290  143.6451  162.0640 C.ar    1  UNL1        0.0002
     19 C         140.2124  143.1725  162.8033 C.ar    1  UNL1        0.0113
     20 C         140.2667  141.9057  163.6047 C.3     1  UNL1        0.1213
     21 N         142.4855  141.5236  167.6535 N.3     1  UNL1       -0.2975
     22 H         143.4198  141.1935  167.8956 H       1  UNL1        0.1232
     23 C         142.1189  141.0436  170.1804 C.3     1  UNL1        0.1591
     24 C         141.4182  141.3461  171.4718 C.3     1  UNL1        0.1729
     25 O         140.3837  142.4307  171.5277 O.3     1  UNL1       -0.3511
     26 C         140.0497  143.2130  170.2922 C.3     1  UNL1        0.1437
     27 C         140.7503  142.9107  169.0008 C.3     1  UNL1        0.0503
     28 C         141.7849  141.8259  168.9449 C.3     1  UNL1        0.0865
     29 C         142.7304  138.5238  170.0177 C.3     1  UNL1        0.1742
     30 O         143.1534  139.9590  170.1245 O.3     1  UNL1       -0.3496
@<TRIPOS>BOND
     1    29    30    1
     2    30    23    1
     3    23    24    1
     4    24    25    1
     5    25    26    1
     6    26    27    1
     7    27    28    1
     8    28    21    1
     9     1    21    1
    10     1     2    1
    11     3     2    1
    12     3     4    1
    13     4     5    1
    14     5     6    1
    15     6     7    1
    16     7     9    1
    17     9    10    2
    18     9    11   am
    19    11    12    1
    20    12    13    1
    21    13    14    1
    22    14    15   ar
    23    15    16   ar
    24    16    17   ar
    25    17    18   ar
    26    18    19   ar
    27    19    20    1
    28     7     8    1
    29    28    23    1
    30     8     1    1
    31     7     3    1
    32    20    11    1
    33    19    14   ar
    34    21    22    1
@<TRIPOS>MOLECULE
*****
 30 34 0 0 0
SMALL
GASTEIGER

@<TRIPOS>ATOM
      1 C         139.5185  139.2667  166.1096 C.3     1  UNL1        0.0545
      2 C         139.1459  139.6599  167.5084 C.3     1  UNL1        0.0162
      3 C         140.4119  139.8355  168.2933 C.3     1  UNL1        0.0095
      4 C         140.9641  140.1870  169.6429 C.3     1  UNL1        0.0005
      5 C         142.4605  140.1196  169.5634 C.3     1  UNL1        0.0005
      6 C         142.8331  139.7265  168.1647 C.3     1  UNL1        0.0087
      7 C         141.5670  139.5509  167.3797 C.3     1  UNL1        0.0704
      8 C         141.0148  139.1994  166.0301 C.3     1  UNL1        0.0243
      9 C         142.7221  139.2663  166.4660 C.2     1  UNL1        0.2250
     10 O         143.3857  137.9213  166.4926 O.2     1  UNL1       -0.2749
     11 N         143.2136  140.3267  165.5258 N.am    1  UNL1       -0.2750
     12 C         144.3687  140.0421  164.6121 C.3     1  UNL1        0.1000
     13 C         144.8602  141.1025  163.6719 C.3     1  UNL1        0.0670
     14 C         144.1967  142.4475  163.6454 C.ar    1  UNL1        0.0583
     15 N         144.6882  143.5079  162.7052 N.ar    1  UNL1       -0.2484
     16 C         144.0246  144.8528  162.6786 C.ar    1  UNL1        0.0984
     17 C         142.8695  145.1374  163.5923 C.ar    1  UNL1        0.0204
     18 C         142.3780  144.0770  164.5325 C.ar    1  UNL1        0.0002
     19 C         143.0416  142.7321  164.5590 C.ar    1  UNL1        0.0113
     20 C         142.5500  141.6717  165.4992 C.3     1  UNL1        0.1213
     21 N         138.5625  138.9896  164.9874 N.3     1  UNL1       -0.2975
     22 H         138.9579  138.2201  164.4471 H       1  UNL1        0.1232
     23 C         138.1294  139.7621  162.5449 C.3     1  UNL1        0.1591
     24 C         137.7863  140.8465  161.5669 C.3     1  UNL1        0.1729
     25 O         137.5333  142.2427  162.0534 O.3     1  UNL1       -0.3511
     26 C         137.6233  142.5545  163.5179 C.3     1  UNL1        0.1437
     27 C         137.9664  141.4702  164.4958 C.3     1  UNL1        0.0503
     28 C         138.2194  140.0739  164.0094 C.3     1  UNL1        0.0865
     29 C         139.0651  138.1428  160.7415 C.3     1  UNL1        0.1742
     30 O         138.3825  138.3660  162.0584 O.3     1  UNL1       -0.3496
@<TRIPOS>BOND
     1    29    30    1
     2    30    23    1
     3    23    24    1
     4    24    25    1
     5    25    26    1
     6    26    27    1
     7    27    28    1
     8    28    21    1
     9     1    21    1
    10     1     2    1
    11     3     2    1
    12     3     4    1
    13     4     5    1
    14     5     6    1
    15     6     7    1
    16     7     9    1
    17     9    10    2
    18     9    11   am
    19    11    12    1
    20    12    13    1
    21    13    14    1
    22    14    15   ar
    23    15    16   ar
    24    16    17   ar
    25    17    18   ar
    26    18    19   ar
    27    19    20    1
    28     7     8    1
    29    28    23    1
    30     8     1    1
    31     7     3    1
    32    20    11    1
    33    19    14   ar
    34    21    22    1
@<TRIPOS>MOLECULE
*****
 30 34 0 0 0
SMALL
GASTEIGER

@<TRIPOS>ATOM
      1 C         141.7096  138.1821  164.6979 C.3     1  UNL1        0.0545
      2 C         142.6224  138.4121  165.8657 C.3     1  UNL1        0.0162
      3 C         141.9290  139.3377  166.8209 C.3     1  UNL1        0.0095
      4 C         142.0646  140.0519  168.1329 C.3     1  UNL1        0.0005
      5 C         140.8069  140.8353  168.3664 C.3     1  UNL1        0.0005
      6 C         139.8941  140.6053  167.1986 C.3     1  UNL1        0.0087
      7 C         140.5875  139.6797  166.2434 C.3     1  UNL1        0.0704
      8 C         140.4520  138.9656  164.9314 C.3     1  UNL1        0.0243
      9 C         139.2461  140.0218  165.6659 C.2     1  UNL1        0.2250
     10 O         138.0705  139.1246  165.9171 O.2     1  UNL1       -0.2749
     11 N         139.0802  141.2611  164.8372 N.am    1  UNL1       -0.2750
     12 C         137.7387  141.6031  164.2597 C.3     1  UNL1        0.1000
     13 C         137.5728  142.8424  163.4310 C.3     1  UNL1        0.0670
     14 C         138.7484  143.7396  163.1798 C.ar    1  UNL1        0.0583
     15 N         138.5825  144.9788  162.3511 N.ar    1  UNL1       -0.2484
     16 C         139.7580  145.8760  162.0999 C.ar    1  UNL1        0.0984
     17 C         141.0995  145.5339  162.6774 C.ar    1  UNL1        0.0204
     18 C         141.2654  144.2947  163.5061 C.ar    1  UNL1        0.0002
     19 C         140.0898  143.3976  163.7573 C.ar    1  UNL1        0.0113
     20 C         140.2557  142.1582  164.5860 C.3     1  UNL1        0.1213
     21 N         142.0029  137.3200  163.5060 N.3     1  UNL1       -0.2975
     22 H         142.8274  136.7665  163.7386 H       1  UNL1        0.1232
     23 C         141.1445  138.1381  161.1943 C.3     1  UNL1        0.1591
     24 C         141.4091  138.7689  159.8593 C.3     1  UNL1        0.1729
     25 O         142.7965  139.2123  159.5011 O.3     1  UNL1       -0.3511
     26 C         143.9194  139.0250  160.4778 C.3     1  UNL1        0.1437
     27 C         143.6549  138.3942  161.8127 C.3     1  UNL1        0.0503
     28 C         142.2674  137.9508  162.1710 C.3     1  UNL1        0.0865
     29 C         138.6477  138.7004  161.6411 C.3     1  UNL1        0.1742
     30 O         139.7571  137.6947  161.5526 O.3     1  UNL1       -0.3496
@<TRIPOS>BOND
     1    29    30    1
     2    30    23    1
     3    23    24    1
     4    24    25    1
     5    25    26    1
     6    26    27    1
     7    27    28    1
     8    28    21    1
     9     1    21    1
    10     1     2    1
    11     3     2    1
    12     3     4    1
    13     4     5    1
    14     5     6    1
    15     6     7    1
    16     7     9    1
    17     9    10    2
    18     9    11   am
    19    11    12    1
    20    12    13    1
    21    13    14    1
    22    14    15   ar
    23    15    16   ar
    24    16    17   ar
    25    17    18   ar
    26    18    19   ar
    27    19    20    1
    28     7     8    1
    29    28    23    1
    30     8     1    1
    31     7     3    1
    32    20    11    1
    33    19    14   ar
    34    21    22    1
@<TRIPOS>MOLECULE
*****
 30 34 0 0 0
SMALL
GASTEIGER

@<TRIPOS>ATOM
      1 C         140.5462  137.6148  163.9467 C.3     1  UNL1        0.0545
      2 C         139.1815  137.3181  164.4941 C.3     1  UNL1        0.0162
      3 C         138.9591  138.1994  165.6873 C.3     1  UNL1        0.0095
      4 C         137.9782  138.5607  166.7631 C.3     1  UNL1        0.0005
      5 C         138.5991  139.6253  167.6181 C.3     1  UNL1        0.0005
      6 C         139.9638  139.9220  167.0707 C.3     1  UNL1        0.0087
      7 C         140.1863  139.0407  165.8774 C.3     1  UNL1        0.0704
      8 C         141.1671  138.6794  164.8017 C.3     1  UNL1        0.0243
      9 C         141.4134  139.8820  166.0675 C.2     1  UNL1        0.2250
     10 O         142.5372  139.3856  166.9281 O.2     1  UNL1       -0.2749
     11 N         141.5168  141.2199  165.3970 N.am    1  UNL1       -0.2750
     12 C         142.7440  142.0612  165.5870 C.3     1  UNL1        0.1000
     13 C         142.8474  143.3990  164.9166 C.3     1  UNL1        0.0670
     14 C         141.7236  143.8955  164.0559 C.ar    1  UNL1        0.0583
     15 N         141.8271  145.2333  163.3855 N.ar    1  UNL1       -0.2484
     16 C         140.7033  145.7298  162.5249 C.ar    1  UNL1        0.0984
     17 C         139.4761  144.8884  162.3348 C.ar    1  UNL1        0.0204
     18 C         139.3727  143.5506  163.0053 C.ar    1  UNL1        0.0002
     19 C         140.4964  143.0542  163.8658 C.ar    1  UNL1        0.0113
     20 C         140.3931  141.7163  164.5364 C.3     1  UNL1        0.1213
     21 N         141.1788  136.9616  162.7538 N.3     1  UNL1       -0.2975
     22 H         141.9153  136.3514  163.1083 H       1  UNL1        0.1232
     23 C         140.9317  138.4024  160.6061 C.3     1  UNL1        0.1591
     24 C         141.5483  139.2447  159.5287 C.3     1  UNL1        0.1729
     25 O         143.0284  139.4881  159.5219 O.3     1  UNL1       -0.3511
     26 C         143.8919  138.8894  160.5923 C.3     1  UNL1        0.1437
     27 C         143.2754  138.0472  161.6696 C.3     1  UNL1        0.0503
     28 C         141.7953  137.8037  161.6765 C.3     1  UNL1        0.0865
     29 C         138.5203  139.2148  161.1305 C.3     1  UNL1        0.1742
     30 O         139.4517  138.1590  160.6129 O.3     1  UNL1       -0.3496
@<TRIPOS>BOND
     1    29    30    1
     2    30    23    1
     3    23    24    1
     4    24    25    1
     5    25    26    1
     6    26    27    1
     7    27    28    1
     8    28    21    1
     9     1    21    1
    10     1     2    1
    11     3     2    1
    12     3     4    1
    13     4     5    1
    14     5     6    1
    15     6     7    1
    16     7     9    1
    17     9    10    2
    18     9    11   am
    19    11    12    1
    20    12    13    1
    21    13    14    1
    22    14    15   ar
    23    15    16   ar
    24    16    17   ar
    25    17    18   ar
    26    18    19   ar
    27    19    20    1
    28     7     8    1
    29    28    23    1
    30     8     1    1
    31     7     3    1
    32    20    11    1
    33    19    14   ar
    34    21    22    1
@<TRIPOS>MOLECULE
*****
 30 34 0 0 0
SMALL
GASTEIGER

@<TRIPOS>ATOM
      1 C         139.1493  138.4436  165.1607 C.3     1  UNL1        0.0545
      2 C         138.3566  138.5824  166.4266 C.3     1  UNL1        0.0162
      3 C         139.1173  139.4837  167.3533 C.3     1  UNL1        0.0095
      4 C         139.0976  140.1265  168.7084 C.3     1  UNL1        0.0005
      5 C         140.3482  140.9421  168.8529 C.3     1  UNL1        0.0005
      6 C         141.1408  140.8033  167.5870 C.3     1  UNL1        0.0087
      7 C         140.3801  139.9020  166.6602 C.3     1  UNL1        0.0704
      8 C         140.3998  139.2592  165.3051 C.3     1  UNL1        0.0243
      9 C         141.6429  140.3203  165.9671 C.2     1  UNL1        0.2250
     10 O         142.9198  139.5753  166.2208 O.2     1  UNL1       -0.2749
     11 N         141.6287  141.4836  165.0202 N.am    1  UNL1       -0.2750
     12 C         142.8915  141.9019  164.3271 C.3     1  UNL1        0.1000
     13 C         142.8774  143.0652  163.3803 C.3     1  UNL1        0.0670
     14 C         141.6004  143.8103  163.1265 C.ar    1  UNL1        0.0583
     15 N         141.5863  144.9736  162.1797 N.ar    1  UNL1       -0.2484
     16 C         140.3094  145.7186  161.9260 C.ar    1  UNL1        0.0984
     17 C         139.0466  145.3003  162.6191 C.ar    1  UNL1        0.0204
     18 C         139.0607  144.1370  163.5659 C.ar    1  UNL1        0.0002
     19 C         140.3376  143.3920  163.8196 C.ar    1  UNL1        0.0113
     20 C         140.3518  142.2286  164.7665 C.3     1  UNL1        0.1213
     21 N         138.7597  137.6318  163.9610 N.3     1  UNL1       -0.2975
     22 H         139.3586  136.8062  163.9571 H       1  UNL1        0.1232
     23 C         140.0814  138.0505  161.7638 C.3     1  UNL1        0.1591
     24 C         140.1641  138.6520  160.3921 C.3     1  UNL1        0.1729
     25 O         139.0079  139.4362  159.8461 O.3     1  UNL1       -0.3511
     26 C         137.7689  139.6189  160.6717 C.3     1  UNL1        0.1437
     27 C         137.6862  139.0174  162.0433 C.3     1  UNL1        0.0503
     28 C         138.8424  138.2332  162.5894 C.3     1  UNL1        0.0865
     29 C         142.5194  137.9637  162.6574 C.3     1  UNL1        0.1742
     30 O         141.2376  137.2664  162.3099 O.3     1  UNL1       -0.3496
@<TRIPOS>BOND
     1    29    30    1
     2    30    23    1
     3    23    24    1
     4    24    25    1
     5    25    26    1
     6    26    27    1
     7    27    28    1
     8    28    21    1
     9     1    21    1
    10     1     2    1
    11     3     2    1
    12     3     4    1
    13     4     5    1
    14     5     6    1
    15     6     7    1
    16     7     9    1
    17     9    10    2
    18     9    11   am
    19    11    12    1
    20    12    13    1
    21    13    14    1
    22    14    15   ar
    23    15    16   ar
    24    16    17   ar
    25    17    18   ar
    26    18    19   ar
    27    19    20    1
    28     7     8    1
    29    28    23    1
    30     8     1    1
    31     7     3    1
    32    20    11    1
    33    19    14   ar
    34    21    22    1
@<TRIPOS>MOLECULE
*****
 30 34 0 0 0
SMALL
GASTEIGER

@<TRIPOS>ATOM
      1 C         141.1798  142.0264  161.9907 C.3     1  UNL1        0.0545
      2 C         140.8798  143.4845  161.8061 C.3     1  UNL1        0.0162
      3 C         139.5663  143.7751  162.4695 C.3     1  UNL1        0.0095
      4 C         138.5691  144.8558  162.7655 C.3     1  UNL1        0.0005
      5 C         137.4409  144.2453  163.5430 C.3     1  UNL1        0.0005
      6 C         137.7409  142.7872  163.7275 C.3     1  UNL1        0.0087
      7 C         139.0544  142.4966  163.0641 C.3     1  UNL1        0.0704
      8 C         140.0516  141.4159  162.7681 C.3     1  UNL1        0.0243
      9 C         138.5426  141.2181  163.6586 C.2     1  UNL1        0.2250
     10 O         137.6952  140.2943  162.8349 O.2     1  UNL1       -0.2749
     11 N         138.8781  140.8634  165.0770 N.am    1  UNL1       -0.2750
     12 C         138.3663  139.5850  165.6716 C.3     1  UNL1        0.1000
     13 C         138.7018  139.2303  167.0898 C.3     1  UNL1        0.0670
     14 C         139.5492  140.1540  167.9136 C.ar    1  UNL1        0.0583
     15 N         139.8848  139.7993  169.3319 N.ar    1  UNL1       -0.2484
     16 C         140.7321  140.7231  170.1556 C.ar    1  UNL1        0.0984
     17 C         141.2440  142.0016  169.5611 C.ar    1  UNL1        0.0204
     18 C         140.9085  142.3563  168.1428 C.ar    1  UNL1        0.0002
     19 C         140.0611  141.4325  167.3191 C.ar    1  UNL1        0.0113
     20 C         139.7255  141.7872  165.9007 C.3     1  UNL1        0.1213
     21 N         142.3946  141.3055  161.4863 N.3     1  UNL1       -0.2975
     22 H         142.0677  140.4341  161.0689 H       1  UNL1        0.1232
     23 C         144.6082  141.9186  162.7003 C.3     1  UNL1        0.1591
     24 C         145.7132  141.5570  163.6481 C.3     1  UNL1        0.1729
     25 O         145.7096  140.2208  164.3296 O.3     1  UNL1       -0.3511
     26 C         144.6009  139.2461  164.0633 C.3     1  UNL1        0.1437
     27 C         143.4960  139.6077  163.1156 C.3     1  UNL1        0.0503
     28 C         143.4996  140.9439  162.4340 C.3     1  UNL1        0.0865
     29 C         144.1342  144.4725  162.7531 C.3     1  UNL1        0.1742
     30 O         144.6119  143.2549  162.0188 O.3     1  UNL1       -0.3496
@<TRIPOS>BOND
     1    29    30    1
     2    30    23    1
     3    23    24    1
     4    24    25    1
     5    25    26    1
     6    26    27    1
     7    27    28    1
     8    28    21    1
     9     1    21    1
    10     1     2    1
    11     3     2    1
    12     3     4    1
    13     4     5    1
    14     5     6    1
    15     6     7    1
    16     7     9    1
    17     9    10    2
    18     9    11   am
    19    11    12    1
    20    12    13    1
    21    13    14    1
    22    14    15   ar
    23    15    16   ar
    24    16    17   ar
    25    17    18   ar
    26    18    19   ar
    27    19    20    1
    28     7     8    1
    29    28    23    1
    30     8     1    1
    31     7     3    1
    32    20    11    1
    33    19    14   ar
    34    21    22    1
@<TRIPOS>MOLECULE
*****
 30 34 0 0 0
SMALL
GASTEIGER

@<TRIPOS>ATOM
      1 C         139.3218  139.8653  167.8753 C.3     1  UNL1        0.0545
      2 C         138.3764  138.8890  167.2404 C.3     1  UNL1        0.0162
      3 C         138.9500  138.4829  165.9154 C.3     1  UNL1        0.0095
      4 C         138.7203  137.6286  164.7041 C.3     1  UNL1        0.0005
      5 C         139.8783  137.8258  163.7713 C.3     1  UNL1        0.0005
      6 C         140.8238  138.8021  164.4061 C.3     1  UNL1        0.0087
      7 C         140.2501  139.2082  165.7313 C.3     1  UNL1        0.0704
      8 C         140.4798  140.0625  166.9425 C.3     1  UNL1        0.0243
      9 C         141.5501  139.9335  165.5471 C.2     1  UNL1        0.2250
     10 O         142.8270  139.3214  166.0418 O.2     1  UNL1       -0.2749
     11 N         141.5731  141.2709  164.8683 N.am    1  UNL1       -0.2750
     12 C         142.8731  141.9962  164.6842 C.3     1  UNL1        0.1000
     13 C         142.8962  143.3336  164.0054 C.3     1  UNL1        0.0670
     14 C         141.6193  143.9458  163.5107 C.ar    1  UNL1        0.0583
     15 N         141.6424  145.2832  162.8319 N.ar    1  UNL1       -0.2484
     16 C         140.3654  145.8953  162.3372 C.ar    1  UNL1        0.0984
     17 C         139.0654  145.1700  162.5213 C.ar    1  UNL1        0.0204
     18 C         139.0423  143.8326  163.2001 C.ar    1  UNL1        0.0002
     19 C         140.3192  143.2205  163.6948 C.ar    1  UNL1        0.0113
     20 C         140.2962  141.8830  164.3736 C.3     1  UNL1        0.1213
     21 N         139.1410  140.5279  169.2088 N.3     1  UNL1       -0.2975
     22 H         138.2548  141.0315  169.1696 H       1  UNL1        0.1232
     23 C         141.3997  140.9961  170.4041 C.3     1  UNL1        0.1591
     24 C         142.4277  141.9671  170.9047 C.3     1  UNL1        0.1729
     25 O         142.2250  143.4405  170.7106 O.3     1  UNL1       -0.3511
     26 C         140.9942  143.9432  170.0159 C.3     1  UNL1        0.1437
     27 C         139.9662  142.9723  169.5153 C.3     1  UNL1        0.0503
     28 C         140.1689  141.4988  169.7094 C.3     1  UNL1        0.0865
     29 C         142.6075  138.7873  169.7621 C.3     1  UNL1        0.1742
     30 O         141.6024  139.5227  170.5982 O.3     1  UNL1       -0.3496
@<TRIPOS>BOND
     1    29    30    1
     2    30    23    1
     3    23    24    1
     4    24    25    1
     5    25    26    1
     6    26    27    1
     7    27    28    1
     8    28    21    1
     9     1    21    1
    10     1     2    1
    11     3     2    1
    12     3     4    1
    13     4     5    1
    14     5     6    1
    15     6     7    1
    16     7     9    1
    17     9    10    2
    18     9    11   am
    19    11    12    1
    20    12    13    1
    21    13    14    1
    22    14    15   ar
    23    15    16   ar
    24    16    17   ar
    25    17    18   ar
    26    18    19   ar
    27    19    20    1
    28     7     8    1
    29    28    23    1
    30     8     1    1
    31     7     3    1
    32    20    11    1
    33    19    14   ar
    34    21    22    1
@<TRIPOS>MOLECULE
*****
 30 34 0 0 0
SMALL
GASTEIGER

@<TRIPOS>ATOM
      1 C         143.1996  139.5911  166.6922 C.3     1  UNL1        0.0545
      2 C         143.3479  138.4020  165.7899 C.3     1  UNL1        0.0162
      3 C         143.6885  138.9013  164.4172 C.3     1  UNL1        0.0095
      4 C         143.9906  138.4750  163.0111 C.3     1  UNL1        0.0005
      5 C         144.2396  139.7093  162.1959 C.3     1  UNL1        0.0005
      6 C         144.0913  140.8984  163.0981 C.3     1  UNL1        0.0087
      7 C         143.7507  140.3991  164.4709 C.3     1  UNL1        0.0704
      8 C         143.4486  140.8254  165.8769 C.3     1  UNL1        0.0243
      9 C         143.8130  141.8968  164.5247 C.2     1  UNL1        0.2250
     10 O         145.1020  142.5820  164.8695 O.2     1  UNL1       -0.2749
     11 N         142.5861  142.7094  164.2337 N.am    1  UNL1       -0.2750
     12 C         142.6484  144.2071  164.2874 C.3     1  UNL1        0.1000
     13 C         141.4216  145.0197  163.9965 C.3     1  UNL1        0.0670
     14 C         140.1325  144.3345  163.6517 C.ar    1  UNL1        0.0583
     15 N         138.9057  145.1471  163.3607 N.ar    1  UNL1       -0.2484
     16 C         137.6167  144.4619  163.0159 C.ar    1  UNL1        0.0984
     17 C         137.5544  142.9642  162.9622 C.ar    1  UNL1        0.0204
     18 C         138.7812  142.1516  163.2532 C.ar    1  UNL1        0.0002
     19 C         140.0702  142.8368  163.5979 C.ar    1  UNL1        0.0113
     20 C         141.2971  142.0242  163.8889 C.3     1  UNL1        0.1213
     21 N         142.8617  139.5527  168.1531 N.3     1  UNL1       -0.2975
     22 H         142.1386  138.8428  168.2695 H       1  UNL1        0.1232
     23 C         140.9018  141.1067  168.8556 C.3     1  UNL1        0.1591
     24 C         140.4081  142.3447  169.5441 C.3     1  UNL1        0.1729
     25 O         141.3806  143.2664  170.2183 O.3     1  UNL1       -0.3511
     26 C         142.8468  142.9502  170.2042 C.3     1  UNL1        0.1437
     27 C         143.3405  141.7124  169.5158 C.3     1  UNL1        0.0503
     28 C         142.3680  140.7906  168.8415 C.3     1  UNL1        0.0865
     29 C         139.5455  140.4165  166.7499 C.3     1  UNL1        0.1742
     30 O         139.9293  140.1850  168.1814 O.3     1  UNL1       -0.3496
@<TRIPOS>BOND
     1    29    30    1
     2    30    23    1
     3    23    24    1
     4    24    25    1
     5    25    26    1
     6    26    27    1
     7    27    28    1
     8    28    21    1
     9     1    21    1
    10     1     2    1
    11     3     2    1
    12     3     4    1
    13     4     5    1
    14     5     6    1
    15     6     7    1
    16     7     9    1
    17     9    10    2
    18     9    11   am
    19    11    12    1
    20    12    13    1
    21    13    14    1
    22    14    15   ar
    23    15    16   ar
    24    16    17   ar
    25    17    18   ar
    26    18    19   ar
    27    19    20    1
    28     7     8    1
    29    28    23    1
    30     8     1    1
    31     7     3    1
    32    20    11    1
    33    19    14   ar
    34    21    22    1
