@<TRIPOS>MOLECULE
*****
 41 47 0 0 0
SMALL
GASTEIGER

@<TRIPOS>ATOM
      1 C         137.7903  139.6829  162.0116 C.3     1  UNL1        0.0700
      2 C         138.4741  138.4048  162.3977 C.3     1  UNL1        0.0193
      3 C         139.0654  138.2549  163.7681 C.3     1  UNL1        0.0287
      4 C         138.9729  139.3832  164.7524 C.3     1  UNL1        0.0955
      5 C         138.2891  140.6612  164.3663 C.3     1  UNL1        0.0287
      6 C         137.6979  140.8110  162.9958 C.3     1  UNL1        0.0193
      7 O         138.6339  139.5120  164.0132 O.3     1  UNL1       -0.3571
      8 C         138.0992  139.6475  162.7741 C.3     1  UNL1        0.1562
      9 N         137.1990  139.8327  160.6412 N.3     1  UNL1       -0.2926
     10 H         136.9315  138.8982  160.3321 H       1  UNL1        0.1236
     11 C         138.0121  140.4383  159.5358 C.3     1  UNL1        0.1149
     12 C         140.6594  141.3422  160.6198 C.3     1  UNL1        0.0324
     13 C         140.5997  140.2222  159.6237 C.ar    1  UNL1       -0.0038
     14 C         141.8636  139.5541  159.1698 C.ar    1  UNL1        0.0368
     15 C         141.8040  138.4341  158.1738 C.ar    1  UNL1        0.1705
     16 C         140.4804  137.9821  157.6318 C.ar    1  UNL1        0.1682
     17 N         139.2164  138.6502  158.0858 N.ar    1  UNL1       -0.2308
     18 C         139.2761  139.7702  159.0817 C.ar    1  UNL1        0.0726
     19 N         140.4207  136.8621  156.6359 N.am    1  UNL1       -0.2639
     20 C         141.6846  136.1940  156.1819 C.2     1  UNL1        0.2718
     21 O         141.6250  135.0739  155.1859 O.2     1  UNL1       -0.2707
     22 C         143.0082  136.6459  156.7238 C.3     1  UNL1        0.2898
     23 O         143.0680  137.7660  157.7199 O.3     1  UNL1       -0.4628
     24 H         139.5519  136.5655  156.2802 H       1  UNL1        0.1565
     25 C         139.5642  139.2333  166.1228 C.3     1  UNL1        0.0604
     26 C         140.7009  140.1140  166.5496 C.3     1  UNL1        0.1335
     27 O         141.2178  139.8502  165.1664 O.3     1  UNL1       -0.3806
     28 C         141.9457  140.9396  166.6873 C.3     1  UNL1        0.1402
     29 N         141.9605  141.5296  168.0663 N.ar    1  UNL1       -0.2915
     30 C         142.9394  142.4270  168.7636 C.ar    1  UNL1        0.2611
     31 O         144.1750  142.8879  168.0490 O.2     1  UNL1       -0.2670
     32 C         142.6827  142.8634  170.1756 C.ar    1  UNL1        0.0623
     33 C         141.4471  142.4024  170.8902 C.ar    1  UNL1        0.0254
     34 C         140.4681  141.5050  170.1929 C.ar    1  UNL1        0.0972
     35 N         139.1685  140.8978  170.6541 N.ar    1  UNL1       -0.2400
     36 C         138.2850  140.0068  169.8322 C.ar    1  UNL1        0.1282
     37 C         138.6739  139.6548  168.4270 C.ar    1  UNL1        0.1588
     38 F         137.7904  138.7638  167.6051 F       1  UNL1       -0.2027
     39 C         139.9464  140.1937  167.8435 C.ar    1  UNL1        0.0500
     40 C         140.7248  141.0686  168.7809 C.ar    1  UNL1        0.0806
     41 H         142.0592  140.3164  165.0413 H       1  UNL1        0.2108
@<TRIPOS>BOND
     1    12    13    1
     2    13    14   ar
     3    14    15   ar
     4    15    16   ar
     5    16    17   ar
     6    17    18   ar
     7    18    11    1
     8    11     9    1
     9     9     1    1
    10     1     2    1
    11     2     3    1
    12     3     4    1
    13     4    25    1
    14    25    26    1
    15    26    27    1
    16    26    28    1
    17    28    29    1
    18    29    30   ar
    19    30    31    2
    20    30    32   ar
    21    32    33   ar
    22    33    34   ar
    23    34    35   ar
    24    35    36   ar
    25    36    37   ar
    26    37    38    1
    27    37    39   ar
    28    39    40   ar
    29     4     5    1
    30     5     6    1
    31     4     7    1
    32     7     8    1
    33    16    19    1
    34    19    20   am
    35    20    21    2
    36    20    22    1
    37    22    23    1
    38    18    13   ar
    39     6     1    1
    40    23    15    1
    41     8     1    1
    42    39    26    1
    43    40    29   ar
    44    40    34   ar
    45     9    10    1
    46    27    41    1
    47    19    24    1
@<TRIPOS>MOLECULE
*****
 41 47 0 0 0
SMALL
GASTEIGER

@<TRIPOS>ATOM
      1 C         137.7502  139.5703  162.0114 C.3     1  UNL1        0.0700
      2 C         138.4779  138.3071  162.3648 C.3     1  UNL1        0.0193
      3 C         139.0809  138.1455  163.7287 C.3     1  UNL1        0.0287
      4 C         138.9562  139.2471  164.7393 C.3     1  UNL1        0.0955
      5 C         138.2286  140.5102  164.3859 C.3     1  UNL1        0.0287
      6 C         137.6256  140.6718  163.0219 C.3     1  UNL1        0.0193
      7 O         138.6093  139.3815  164.0048 O.3     1  UNL1       -0.3571
      8 C         138.0641  139.5277  162.7715 C.3     1  UNL1        0.1562
      9 N         137.1472  139.7320  160.6475 N.3     1  UNL1       -0.2926
     10 H         136.8596  138.8027  160.3407 H       1  UNL1        0.1236
     11 C         137.9594  140.3236  159.5338 C.3     1  UNL1        0.1149
     12 C         139.9111  138.3214  158.4466 C.3     1  UNL1        0.0324
     13 C         140.4088  139.5380  159.1692 C.ar    1  UNL1       -0.0038
     14 C         141.8824  139.7535  159.3481 C.ar    1  UNL1        0.0368
     15 C         142.3803  140.9700  160.0707 C.ar    1  UNL1        0.1705
     16 C         141.4045  141.9712  160.6143 C.ar    1  UNL1        0.1682
     17 N         139.9308  141.7557  160.4354 N.ar    1  UNL1       -0.2308
     18 C         139.4330  140.5392  159.7128 C.ar    1  UNL1        0.0726
     19 N         141.9022  143.1877  161.3369 N.am    1  UNL1       -0.2639
     20 C         143.3758  143.4032  161.5158 C.2     1  UNL1        0.2718
     21 O         143.8737  144.6198  162.2384 O.2     1  UNL1       -0.2707
     22 C         144.3517  142.4021  160.9722 C.3     1  UNL1        0.2898
     23 O         143.8539  141.1855  160.2496 O.3     1  UNL1       -0.4628
     24 H         141.2617  143.8448  161.6937 H       1  UNL1        0.1565
     25 C         139.5592  139.0854  166.1032 C.3     1  UNL1        0.0604
     26 C         140.6701  139.9916  166.5443 C.3     1  UNL1        0.1335
     27 O         141.2319  139.7061  165.1831 O.3     1  UNL1       -0.3806
     28 C         141.8984  140.8382  166.7009 C.3     1  UNL1        0.1402
     29 N         141.8636  141.4575  168.0667 N.ar    1  UNL1       -0.2915
     30 C         142.8085  142.3839  168.7731 C.ar    1  UNL1        0.2611
     31 O         144.0584  142.8477  168.0856 O.2     1  UNL1       -0.2670
     32 C         142.5035  142.8464  170.1670 C.ar    1  UNL1        0.0623
     33 C         141.2536  142.3826  170.8545 C.ar    1  UNL1        0.0254
     34 C         140.3087  141.4562  170.1481 C.ar    1  UNL1        0.0972
     35 N         139.0045  140.8399  170.5836 N.ar    1  UNL1       -0.2400
     36 C         138.1587  139.9187  169.7554 C.ar    1  UNL1        0.1282
     37 C         138.5945  139.5427  168.3703 C.ar    1  UNL1        0.1588
     38 F         137.7486  138.6215  167.5421 F       1  UNL1       -0.2027
     39 C         139.8761  140.0878  167.8133 C.ar    1  UNL1        0.0500
     40 C         140.6137  140.9937  168.7542 C.ar    1  UNL1        0.0806
     41 H         142.0700  140.1818  165.0730 H       1  UNL1        0.2108
@<TRIPOS>BOND
     1    12    13    1
     2    13    14   ar
     3    14    15   ar
     4    15    16   ar
     5    16    17   ar
     6    17    18   ar
     7    18    11    1
     8    11     9    1
     9     9     1    1
    10     1     2    1
    11     2     3    1
    12     3     4    1
    13     4    25    1
    14    25    26    1
    15    26    27    1
    16    26    28    1
    17    28    29    1
    18    29    30   ar
    19    30    31    2
    20    30    32   ar
    21    32    33   ar
    22    33    34   ar
    23    34    35   ar
    24    35    36   ar
    25    36    37   ar
    26    37    38    1
    27    37    39   ar
    28    39    40   ar
    29     4     5    1
    30     5     6    1
    31     4     7    1
    32     7     8    1
    33    16    19    1
    34    19    20   am
    35    20    21    2
    36    20    22    1
    37    22    23    1
    38    18    13   ar
    39     6     1    1
    40    23    15    1
    41     8     1    1
    42    39    26    1
    43    40    29   ar
    44    40    34   ar
    45     9    10    1
    46    27    41    1
    47    19    24    1
@<TRIPOS>MOLECULE
*****
 41 47 0 0 0
SMALL
GASTEIGER

@<TRIPOS>ATOM
      1 C         138.1272  139.6470  161.0071 C.3     1  UNL1        0.0700
      2 C         138.6376  138.2745  161.3320 C.3     1  UNL1        0.0193
      3 C         139.4171  138.0431  162.5925 C.3     1  UNL1        0.0287
      4 C         139.6862  139.1843  163.5282 C.3     1  UNL1        0.0955
      5 C         139.1758  140.5569  163.2033 C.3     1  UNL1        0.0287
      6 C         138.3962  140.7882  161.9427 C.3     1  UNL1        0.0193
      7 O         139.2544  139.3599  162.8494 O.3     1  UNL1       -0.3571
      8 C         138.5496  139.5691  161.7097 C.3     1  UNL1        0.1562
      9 N         137.3476  139.8784  159.7467 N.3     1  UNL1       -0.2926
     10 H         136.8812  138.9992  159.5233 H       1  UNL1        0.1236
     11 C         138.0528  140.3234  158.4998 C.3     1  UNL1        0.1149
     12 C         140.6225  141.7427  159.1182 C.3     1  UNL1        0.0324
     13 C         140.6483  140.4120  158.4264 C.ar    1  UNL1       -0.0038
     14 C         141.9590  139.7910  158.0437 C.ar    1  UNL1        0.0368
     15 C         141.9849  138.4603  157.3519 C.ar    1  UNL1        0.1705
     16 C         140.7001  137.7506  157.0427 C.ar    1  UNL1        0.1682
     17 N         139.3894  138.3716  157.4254 N.ar    1  UNL1       -0.2308
     18 C         139.3635  139.7023  158.1172 C.ar    1  UNL1        0.0726
     19 N         140.7259  136.4200  156.3509 N.am    1  UNL1       -0.2639
     20 C         142.0366  135.7990  155.9683 C.2     1  UNL1        0.2718
     21 O         142.0625  134.4682  155.2765 O.2     1  UNL1       -0.2707
     22 C         143.3214  136.5085  156.2775 C.3     1  UNL1        0.2898
     23 O         143.2956  137.8393  156.9693 O.3     1  UNL1       -0.4628
     24 H         139.8826  135.9542  156.1480 H       1  UNL1        0.1565
     25 C         140.4657  138.9530  164.7886 C.3     1  UNL1        0.0604
     26 C         139.8227  139.1915  166.1226 C.3     1  UNL1        0.1335
     27 O         138.8157  138.1901  165.6401 O.3     1  UNL1       -0.3806
     28 C         138.9692  139.2208  167.3558 C.3     1  UNL1        0.1402
     29 N         139.5831  140.1905  168.3216 N.ar    1  UNL1       -0.2915
     30 C         139.1787  140.6280  169.6982 C.ar    1  UNL1        0.2611
     31 O         137.9457  140.0579  170.3344 O.2     1  UNL1       -0.2670
     32 C         140.0073  141.6356  170.4385 C.ar    1  UNL1        0.0623
     33 C         141.2403  142.2056  169.8023 C.ar    1  UNL1        0.0254
     34 C         141.6447  141.7681  168.4258 C.ar    1  UNL1        0.0972
     35 N         142.8100  142.1633  167.5560 N.ar    1  UNL1       -0.2400
     36 C         143.0877  141.6329  166.1807 C.ar    1  UNL1        0.1282
     37 C         142.1648  140.6229  165.5659 C.ar    1  UNL1        0.1588
     38 F         142.4426  140.0925  164.1906 F       1  UNL1       -0.2027
     39 C         140.9642  140.1431  166.3264 C.ar    1  UNL1        0.0500
     40 C         140.8161  140.7605  167.6854 C.ar    1  UNL1        0.0806
     41 H         138.1399  138.0563  166.3229 H       1  UNL1        0.2108
@<TRIPOS>BOND
     1    12    13    1
     2    13    14   ar
     3    14    15   ar
     4    15    16   ar
     5    16    17   ar
     6    17    18   ar
     7    18    11    1
     8    11     9    1
     9     9     1    1
    10     1     2    1
    11     2     3    1
    12     3     4    1
    13     4    25    1
    14    25    26    1
    15    26    27    1
    16    26    28    1
    17    28    29    1
    18    29    30   ar
    19    30    31    2
    20    30    32   ar
    21    32    33   ar
    22    33    34   ar
    23    34    35   ar
    24    35    36   ar
    25    36    37   ar
    26    37    38    1
    27    37    39   ar
    28    39    40   ar
    29     4     5    1
    30     5     6    1
    31     4     7    1
    32     7     8    1
    33    16    19    1
    34    19    20   am
    35    20    21    2
    36    20    22    1
    37    22    23    1
    38    18    13   ar
    39     6     1    1
    40    23    15    1
    41     8     1    1
    42    39    26    1
    43    40    29   ar
    44    40    34   ar
    45     9    10    1
    46    27    41    1
    47    19    24    1
@<TRIPOS>MOLECULE
*****
 41 47 0 0 0
SMALL
GASTEIGER

@<TRIPOS>ATOM
      1 C         144.3175  140.1881  157.4846 C.3     1  UNL1        0.0700
      2 C         143.5437  139.7894  158.7062 C.3     1  UNL1        0.0193
      3 C         143.3877  140.7551  159.8434 C.3     1  UNL1        0.0287
      4 C         144.0055  142.1194  159.7590 C.3     1  UNL1        0.0955
      5 C         144.7793  142.5180  158.5373 C.3     1  UNL1        0.0287
      6 C         144.9353  141.5523  157.4002 C.3     1  UNL1        0.0193
      7 O         144.1180  141.6245  159.1106 O.3     1  UNL1       -0.3571
      8 C         144.2591  140.7514  158.0823 C.3     1  UNL1        0.1562
      9 N         144.4735  139.2224  156.3474 N.3     1  UNL1       -0.2926
     10 H         145.0526  139.6843  155.6462 H       1  UNL1        0.1236
     11 C         143.2611  138.7025  155.6334 C.3     1  UNL1        0.1149
     12 C         140.6420  137.7344  154.5366 C.3     1  UNL1        0.0324
     13 C         141.5871  136.7669  155.1854 C.ar    1  UNL1       -0.0038
     14 C         141.2225  135.3153  155.2858 C.ar    1  UNL1        0.0368
     15 C         142.1674  134.3478  155.9345 C.ar    1  UNL1        0.1705
     16 C         143.4770  134.8318  156.4829 C.ar    1  UNL1        0.1682
     17 N         143.8416  136.2833  156.3825 N.ar    1  UNL1       -0.2308
     18 C         142.8966  137.2509  155.7338 C.ar    1  UNL1        0.0726
     19 N         144.4220  133.8643  157.1316 N.am    1  UNL1       -0.2639
     20 C         144.0574  132.4128  157.2320 C.2     1  UNL1        0.2718
     21 O         145.0025  131.4452  157.8808 O.2     1  UNL1       -0.2707
     22 C         142.7479  131.9287  156.6837 C.3     1  UNL1        0.2898
     23 O         141.8028  132.8962  156.0349 O.3     1  UNL1       -0.4628
     24 H         145.2815  134.1820  157.4916 H       1  UNL1        0.1565
     25 C         143.8495  143.0850  160.8962 C.3     1  UNL1        0.0604
     26 C         142.5120  143.7031  161.1771 C.3     1  UNL1        0.1335
     27 O         142.5666  144.0982  159.7311 O.3     1  UNL1       -0.3806
     28 C         141.1859  144.4038  161.1558 C.3     1  UNL1        0.1402
     29 N         140.5912  144.3126  162.5299 N.ar    1  UNL1       -0.2915
     30 C         139.3008  144.8211  163.1009 C.ar    1  UNL1        0.2611
     31 O         138.3421  145.5782  162.2303 O.2     1  UNL1       -0.2670
     32 C         138.9689  144.5725  164.5424 C.ar    1  UNL1        0.0623
     33 C         139.9275  143.8155  165.4129 C.ar    1  UNL1        0.0254
     34 C         141.2180  143.3070  164.8420 C.ar    1  UNL1        0.0972
     35 N         142.3483  142.5317  165.4678 N.ar    1  UNL1       -0.2400
     36 C         143.5939  142.0867  164.7605 C.ar    1  UNL1        0.1282
     37 C         143.7882  142.4103  163.3087 C.ar    1  UNL1        0.1588
     38 F         145.0338  141.9652  162.6014 F       1  UNL1       -0.2027
     39 C         142.7369  143.1789  162.5644 C.ar    1  UNL1        0.0500
     40 C         141.5499  143.5555  163.4005 C.ar    1  UNL1        0.0806
     41 H         141.7619  144.5876  159.4990 H       1  UNL1        0.2108
@<TRIPOS>BOND
     1    12    13    1
     2    13    14   ar
     3    14    15   ar
     4    15    16   ar
     5    16    17   ar
     6    17    18   ar
     7    18    11    1
     8    11     9    1
     9     9     1    1
    10     1     2    1
    11     2     3    1
    12     3     4    1
    13     4    25    1
    14    25    26    1
    15    26    27    1
    16    26    28    1
    17    28    29    1
    18    29    30   ar
    19    30    31    2
    20    30    32   ar
    21    32    33   ar
    22    33    34   ar
    23    34    35   ar
    24    35    36   ar
    25    36    37   ar
    26    37    38    1
    27    37    39   ar
    28    39    40   ar
    29     4     5    1
    30     5     6    1
    31     4     7    1
    32     7     8    1
    33    16    19    1
    34    19    20   am
    35    20    21    2
    36    20    22    1
    37    22    23    1
    38    18    13   ar
    39     6     1    1
    40    23    15    1
    41     8     1    1
    42    39    26    1
    43    40    29   ar
    44    40    34   ar
    45     9    10    1
    46    27    41    1
    47    19    24    1
@<TRIPOS>MOLECULE
*****
 41 47 0 0 0
SMALL
GASTEIGER

@<TRIPOS>ATOM
      1 C         142.3721  138.6751  159.5991 C.3     1  UNL1        0.0700
      2 C         141.6765  140.0021  159.5276 C.3     1  UNL1        0.0193
      3 C         140.9735  140.5465  160.7357 C.3     1  UNL1        0.0287
      4 C         140.9662  139.7637  162.0154 C.3     1  UNL1        0.0955
      5 C         141.6619  138.4367  162.0868 C.3     1  UNL1        0.0287
      6 C         142.3648  137.8925  160.8786 C.3     1  UNL1        0.0193
      7 O         141.3647  139.4246  161.3797 O.3     1  UNL1       -0.3571
      8 C         142.0003  138.9324  160.2873 C.3     1  UNL1        0.1562
      9 N         143.0751  138.1308  158.3909 N.3     1  UNL1       -0.2926
     10 H         143.6927  138.8685  158.0523 H       1  UNL1        0.1236
     11 C         142.2798  137.6563  157.2109 C.3     1  UNL1        0.1149
     12 C         140.5759  136.6803  154.9428 C.3     1  UNL1        0.0324
     13 C         141.4564  135.7202  155.6866 C.ar    1  UNL1       -0.0038
     14 C         141.4848  134.2722  155.2963 C.ar    1  UNL1        0.0368
     15 C         142.3652  133.3121  156.0400 C.ar    1  UNL1        0.1705
     16 C         143.2171  133.8000  157.1740 C.ar    1  UNL1        0.1682
     17 N         143.1887  135.2481  157.5644 N.ar    1  UNL1       -0.2308
     18 C         142.3083  136.2082  156.8207 C.ar    1  UNL1        0.0726
     19 N         144.0975  132.8400  157.9177 N.am    1  UNL1       -0.2639
     20 C         144.1259  131.3920  157.5274 C.2     1  UNL1        0.2718
     21 O         145.0064  130.4318  158.2712 O.2     1  UNL1       -0.2707
     22 C         143.2740  130.9040  156.3934 C.3     1  UNL1        0.2898
     23 O         142.3936  131.8640  155.6496 O.3     1  UNL1       -0.4628
     24 H         144.6567  133.1603  158.6621 H       1  UNL1        0.1565
     25 C         140.2633  140.3081  163.2235 C.3     1  UNL1        0.0604
     26 C         141.0583  140.8817  164.3588 C.3     1  UNL1        0.1335
     27 O         141.9070  141.4597  163.2654 O.3     1  UNL1       -0.3806
     28 C         142.0307  141.5761  165.2656 C.3     1  UNL1        0.1402
     29 N         141.6168  141.3074  166.6821 N.ar    1  UNL1       -0.2915
     30 C         142.1996  141.7351  167.9964 C.ar    1  UNL1        0.2611
     31 O         143.4278  142.5956  168.0277 O.2     1  UNL1       -0.2670
     32 C         141.5541  141.3023  169.2793 C.ar    1  UNL1        0.0623
     33 C         140.3259  140.4418  169.2481 C.ar    1  UNL1        0.0254
     34 C         139.7431  140.0141  167.9338 C.ar    1  UNL1        0.0972
     35 N         138.5410  139.1674  167.6045 N.ar    1  UNL1       -0.2400
     36 C         138.0745  138.8201  166.2218 C.ar    1  UNL1        0.1282
     37 C         138.8257  139.3283  165.0271 C.ar    1  UNL1        0.1588
     38 F         138.3591  138.9810  163.6445 F       1  UNL1       -0.2027
     39 C         140.0434  140.1838  165.2150 C.ar    1  UNL1        0.0500
     40 C         140.3885  140.4469  166.6508 C.ar    1  UNL1        0.0806
     41 H         142.6317  141.9729  163.6557 H       1  UNL1        0.2108
@<TRIPOS>BOND
     1    12    13    1
     2    13    14   ar
     3    14    15   ar
     4    15    16   ar
     5    16    17   ar
     6    17    18   ar
     7    18    11    1
     8    11     9    1
     9     9     1    1
    10     1     2    1
    11     2     3    1
    12     3     4    1
    13     4    25    1
    14    25    26    1
    15    26    27    1
    16    26    28    1
    17    28    29    1
    18    29    30   ar
    19    30    31    2
    20    30    32   ar
    21    32    33   ar
    22    33    34   ar
    23    34    35   ar
    24    35    36   ar
    25    36    37   ar
    26    37    38    1
    27    37    39   ar
    28    39    40   ar
    29     4     5    1
    30     5     6    1
    31     4     7    1
    32     7     8    1
    33    16    19    1
    34    19    20   am
    35    20    21    2
    36    20    22    1
    37    22    23    1
    38    18    13   ar
    39     6     1    1
    40    23    15    1
    41     8     1    1
    42    39    26    1
    43    40    29   ar
    44    40    34   ar
    45     9    10    1
    46    27    41    1
    47    19    24    1
@<TRIPOS>MOLECULE
*****
 41 47 0 0 0
SMALL
GASTEIGER

@<TRIPOS>ATOM
      1 C         143.1844  144.2724  163.4857 C.3     1  UNL1        0.0700
      2 C         141.9605  145.1274  163.6307 C.3     1  UNL1        0.0193
      3 C         141.0579  145.3508  162.4537 C.3     1  UNL1        0.0287
      4 C         141.3792  144.7192  161.1316 C.3     1  UNL1        0.0955
      5 C         142.6031  143.8642  160.9865 C.3     1  UNL1        0.0287
      6 C         143.5057  143.6408  162.1636 C.3     1  UNL1        0.0193
      7 O         141.9037  144.5679  161.7480 O.3     1  UNL1       -0.3571
      8 C         142.7198  144.3659  162.8122 C.3     1  UNL1        0.1562
      9 N         144.0870  144.0490  164.6627 N.3     1  UNL1       -0.2926
     10 H         145.0238  144.3295  164.3728 H       1  UNL1        0.1236
     11 C         144.2112  142.6801  165.2633 C.3     1  UNL1        0.1149
     12 C         142.2451  140.7698  164.0446 C.3     1  UNL1        0.0324
     13 C         142.1114  141.1665  165.4851 C.ar    1  UNL1       -0.0038
     14 C         140.9945  140.6079  166.3162 C.ar    1  UNL1        0.0368
     15 C         140.8607  141.0044  167.7566 C.ar    1  UNL1        0.1705
     16 C         141.8438  141.9595  168.3659 C.ar    1  UNL1        0.1682
     17 N         142.9606  142.5181  167.5349 N.ar    1  UNL1       -0.2308
     18 C         143.0944  142.1216  166.0945 C.ar    1  UNL1        0.0726
     19 N         141.7100  142.3561  169.8063 N.am    1  UNL1       -0.2639
     20 C         140.5932  141.7975  170.6374 C.2     1  UNL1        0.2718
     21 O         140.4594  142.1941  172.0779 O.2     1  UNL1       -0.2707
     22 C         139.6102  140.8424  170.0281 C.3     1  UNL1        0.2898
     23 O         139.7439  140.4458  168.5876 O.3     1  UNL1       -0.4628
     24 H         142.3552  142.9830  170.2063 H       1  UNL1        0.1565
     25 C         140.4766  144.9426  159.9545 C.3     1  UNL1        0.0604
     26 C         139.6196  143.8227  159.4433 C.3     1  UNL1        0.1335
     27 O         139.1833  143.7133  160.8743 O.3     1  UNL1       -0.3806
     28 C         138.6715  142.6799  159.2312 C.3     1  UNL1        0.1402
     29 N         138.7009  142.3170  157.7761 N.ar    1  UNL1       -0.2915
     30 C         137.9726  141.2689  156.9880 C.ar    1  UNL1        0.2611
     31 O         137.0062  140.3503  157.6753 O.2     1  UNL1       -0.2670
     32 C         138.2107  141.1394  155.5128 C.ar    1  UNL1        0.0623
     33 C         139.1771  142.0579  154.8255 C.ar    1  UNL1        0.0254
     34 C         139.9054  143.1060  155.6135 C.ar    1  UNL1        0.0972
     35 N         140.9133  144.1458  155.1970 N.ar    1  UNL1       -0.2400
     36 C         141.5649  145.1406  156.1112 C.ar    1  UNL1        0.1282
     37 C         141.2258  145.1507  157.5723 C.ar    1  UNL1        0.1588
     38 F         141.8774  146.1455  158.4866 F       1  UNL1       -0.2027
     39 C         140.2351  144.1661  158.1192 C.ar    1  UNL1        0.0500
     40 C         139.6673  143.2356  157.0888 C.ar    1  UNL1        0.0806
     41 H         138.5359  142.9962  160.9610 H       1  UNL1        0.2108
@<TRIPOS>BOND
     1    12    13    1
     2    13    14   ar
     3    14    15   ar
     4    15    16   ar
     5    16    17   ar
     6    17    18   ar
     7    18    11    1
     8    11     9    1
     9     9     1    1
    10     1     2    1
    11     2     3    1
    12     3     4    1
    13     4    25    1
    14    25    26    1
    15    26    27    1
    16    26    28    1
    17    28    29    1
    18    29    30   ar
    19    30    31    2
    20    30    32   ar
    21    32    33   ar
    22    33    34   ar
    23    34    35   ar
    24    35    36   ar
    25    36    37   ar
    26    37    38    1
    27    37    39   ar
    28    39    40   ar
    29     4     5    1
    30     5     6    1
    31     4     7    1
    32     7     8    1
    33    16    19    1
    34    19    20   am
    35    20    21    2
    36    20    22    1
    37    22    23    1
    38    18    13   ar
    39     6     1    1
    40    23    15    1
    41     8     1    1
    42    39    26    1
    43    40    29   ar
    44    40    34   ar
    45     9    10    1
    46    27    41    1
    47    19    24    1
@<TRIPOS>MOLECULE
*****
 41 47 0 0 0
SMALL
GASTEIGER

@<TRIPOS>ATOM
      1 C         143.1792  144.4317  163.4907 C.3     1  UNL1        0.0700
      2 C         141.8958  145.1941  163.6381 C.3     1  UNL1        0.0193
      3 C         140.9817  145.3587  162.4602 C.3     1  UNL1        0.0287
      4 C         141.3510  144.7609  161.1349 C.3     1  UNL1        0.0955
      5 C         142.6343  143.9984  160.9875 C.3     1  UNL1        0.0287
      6 C         143.5484  143.8339  162.1655 C.3     1  UNL1        0.0193
      7 O         141.8839  144.6443  161.7517 O.3     1  UNL1       -0.3571
      8 C         142.7104  144.4955  162.8167 C.3     1  UNL1        0.1562
      9 N         144.0933  144.2671  164.6685 N.3     1  UNL1       -0.2926
     10 H         145.0470  144.3056  164.3088 H       1  UNL1        0.1236
     11 C         144.0019  143.0374  165.5226 C.3     1  UNL1        0.1149
     12 C         145.9424  141.5182  163.8118 C.3     1  UNL1        0.0324
     13 C         144.5682  140.9687  164.0564 C.ar    1  UNL1       -0.0038
     14 C         144.1643  139.6596  163.4456 C.ar    1  UNL1        0.0368
     15 C         142.7902  139.1101  163.6901 C.ar    1  UNL1        0.1705
     16 C         141.8200  139.8697  164.5454 C.ar    1  UNL1        0.1682
     17 N         142.2238  141.1788  165.1563 N.ar    1  UNL1       -0.2308
     18 C         143.5980  141.7283  164.9118 C.ar    1  UNL1        0.0726
     19 N         140.4458  139.3203  164.7900 N.am    1  UNL1       -0.2639
     20 C         140.0420  138.0111  164.1792 C.2     1  UNL1        0.2718
     21 O         138.6677  137.4616  164.4237 O.2     1  UNL1       -0.2707
     22 C         141.0121  137.2515  163.3238 C.3     1  UNL1        0.2898
     23 O         142.3863  137.8010  163.0792 O.3     1  UNL1       -0.4628
     24 H         139.8091  139.8188  165.3514 H       1  UNL1        0.1565
     25 C         140.4368  144.9254  159.9571 C.3     1  UNL1        0.0604
     26 C         139.5723  143.7828  159.5133 C.3     1  UNL1        0.1335
     27 O         139.1736  143.7290  160.9583 O.3     1  UNL1       -0.3806
     28 C         138.6244  142.6290  159.3715 C.3     1  UNL1        0.1402
     29 N         138.6179  142.2086  157.9316 N.ar    1  UNL1       -0.2915
     30 C         137.8745  141.1272  157.2051 C.ar    1  UNL1        0.2611
     31 O         136.9306  140.2331  157.9532 O.2     1  UNL1       -0.2670
     32 C         138.0750  140.9398  155.7304 C.ar    1  UNL1        0.0623
     33 C         139.0189  141.8339  154.9823 C.ar    1  UNL1        0.0254
     34 C         139.7624  142.9153  155.7088 C.ar    1  UNL1        0.0972
     35 N         140.7542  143.9414  155.2252 N.ar    1  UNL1       -0.2400
     36 C         141.4244  144.9742  156.0819 C.ar    1  UNL1        0.1282
     37 C         141.1232  145.0413  157.5498 C.ar    1  UNL1        0.1588
     38 F         141.7935  146.0741  158.4065 F       1  UNL1       -0.2027
     39 C         140.1517  144.0755  158.1610 C.ar    1  UNL1        0.0500
     40 C         139.5619  143.1026  157.1835 C.ar    1  UNL1        0.0806
     41 H         138.5321  143.0135  161.0903 H       1  UNL1        0.2108
@<TRIPOS>BOND
     1    12    13    1
     2    13    14   ar
     3    14    15   ar
     4    15    16   ar
     5    16    17   ar
     6    17    18   ar
     7    18    11    1
     8    11     9    1
     9     9     1    1
    10     1     2    1
    11     2     3    1
    12     3     4    1
    13     4    25    1
    14    25    26    1
    15    26    27    1
    16    26    28    1
    17    28    29    1
    18    29    30   ar
    19    30    31    2
    20    30    32   ar
    21    32    33   ar
    22    33    34   ar
    23    34    35   ar
    24    35    36   ar
    25    36    37   ar
    26    37    38    1
    27    37    39   ar
    28    39    40   ar
    29     4     5    1
    30     5     6    1
    31     4     7    1
    32     7     8    1
    33    16    19    1
    34    19    20   am
    35    20    21    2
    36    20    22    1
    37    22    23    1
    38    18    13   ar
    39     6     1    1
    40    23    15    1
    41     8     1    1
    42    39    26    1
    43    40    29   ar
    44    40    34   ar
    45     9    10    1
    46    27    41    1
    47    19    24    1
@<TRIPOS>MOLECULE
*****
 41 47 0 0 0
SMALL
GASTEIGER

@<TRIPOS>ATOM
      1 C         137.6860  139.4647  161.3074 C.3     1  UNL1        0.0700
      2 C         137.7636  140.4582  162.4285 C.3     1  UNL1        0.0193
      3 C         138.4800  140.1026  163.6975 C.3     1  UNL1        0.0287
      4 C         139.1188  138.7535  163.8454 C.3     1  UNL1        0.0955
      5 C         139.0412  137.7599  162.7243 C.3     1  UNL1        0.0287
      6 C         138.3247  138.1156  161.4553 C.3     1  UNL1        0.0193
      7 O         138.7372  138.9028  163.1312 O.3     1  UNL1       -0.3571
      8 C         138.0894  139.2243  161.9838 C.3     1  UNL1        0.1562
      9 N         136.9696  139.8202  160.0384 N.3     1  UNL1       -0.2926
     10 H         136.5602  138.9576  159.6797 H       1  UNL1        0.1236
     11 C         137.7224  140.4472  158.9026 C.3     1  UNL1        0.1149
     12 C         139.6616  138.7497  157.3669 C.3     1  UNL1        0.0324
     13 C         140.1663  139.8457  158.2581 C.ar    1  UNL1       -0.0038
     14 C         141.6407  140.0929  158.3813 C.ar    1  UNL1        0.0368
     15 C         142.1455  141.1889  159.2724 C.ar    1  UNL1        0.1705
     16 C         141.1760  142.0376  160.0402 C.ar    1  UNL1        0.1682
     17 N         139.7016  141.7905  159.9170 N.ar    1  UNL1       -0.2308
     18 C         139.1968  140.6945  159.0259 C.ar    1  UNL1        0.0726
     19 N         141.6807  143.1336  160.9313 N.am    1  UNL1       -0.2639
     20 C         143.1551  143.3808  161.0545 C.2     1  UNL1        0.2718
     21 O         143.6599  144.4768  161.9456 O.2     1  UNL1       -0.2707
     22 C         144.1246  142.5321  160.2867 C.3     1  UNL1        0.2898
     23 O         143.6199  141.4360  159.3956 O.3     1  UNL1       -0.4628
     24 H         141.0444  143.6907  161.4352 H       1  UNL1        0.1565
     25 C         139.8352  138.3979  165.1144 C.3     1  UNL1        0.0604
     26 C         139.3089  138.8809  166.4333 C.3     1  UNL1        0.1335
     27 O         138.1221  138.0289  166.0936 O.3     1  UNL1       -0.3806
     28 C         138.5346  139.1859  167.6813 C.3     1  UNL1        0.1402
     29 N         139.3528  140.1254  168.5166 N.ar    1  UNL1       -0.2915
     30 C         139.0977  140.7655  169.8490 C.ar    1  UNL1        0.2611
     31 O         137.8176  140.4897  170.5807 O.2     1  UNL1       -0.2670
     32 C         140.1226  141.6813  170.4496 C.ar    1  UNL1        0.0623
     33 C         141.4027  141.9570  169.7179 C.ar    1  UNL1        0.0254
     34 C         141.6578  141.3169  168.3856 C.ar    1  UNL1        0.0972
     35 N         142.8297  141.4096  167.4430 N.ar    1  UNL1       -0.2400
     36 C         142.9444  140.7011  166.1258 C.ar    1  UNL1        0.1282
     37 C         141.8324  139.8124  165.6530 C.ar    1  UNL1        0.1588
     38 F         141.9470  139.1039  164.3359 F       1  UNL1       -0.2027
     39 C         140.6058  139.6320  166.4974 C.ar    1  UNL1        0.0500
     40 C         140.6329  140.4012  167.7849 C.ar    1  UNL1        0.0806
     41 H         137.4676  138.0868  166.8072 H       1  UNL1        0.2108
@<TRIPOS>BOND
     1    12    13    1
     2    13    14   ar
     3    14    15   ar
     4    15    16   ar
     5    16    17   ar
     6    17    18   ar
     7    18    11    1
     8    11     9    1
     9     9     1    1
    10     1     2    1
    11     2     3    1
    12     3     4    1
    13     4    25    1
    14    25    26    1
    15    26    27    1
    16    26    28    1
    17    28    29    1
    18    29    30   ar
    19    30    31    2
    20    30    32   ar
    21    32    33   ar
    22    33    34   ar
    23    34    35   ar
    24    35    36   ar
    25    36    37   ar
    26    37    38    1
    27    37    39   ar
    28    39    40   ar
    29     4     5    1
    30     5     6    1
    31     4     7    1
    32     7     8    1
    33    16    19    1
    34    19    20   am
    35    20    21    2
    36    20    22    1
    37    22    23    1
    38    18    13   ar
    39     6     1    1
    40    23    15    1
    41     8     1    1
    42    39    26    1
    43    40    29   ar
    44    40    34   ar
    45     9    10    1
    46    27    41    1
    47    19    24    1
@<TRIPOS>MOLECULE
*****
 41 47 0 0 0
SMALL
GASTEIGER

@<TRIPOS>ATOM
      1 C         141.0481  139.2953  158.2929 C.3     1  UNL1        0.0700
      2 C         139.8468  138.4332  158.5453 C.3     1  UNL1        0.0193
      3 C         139.4696  138.0649  159.9496 C.3     1  UNL1        0.0287
      4 C         140.2938  138.5586  161.1016 C.3     1  UNL1        0.0955
      5 C         141.4951  139.4207  160.8493 C.3     1  UNL1        0.0287
      6 C         141.8722  139.7890  159.4449 C.3     1  UNL1        0.0193
      7 O         140.5398  138.7867  160.3497 O.3     1  UNL1       -0.3571
      8 C         140.8808  139.1198  159.0799 C.3     1  UNL1        0.1562
      9 N         141.4253  139.6636  156.8886 N.3     1  UNL1       -0.2926
     10 H         140.5702  139.6233  156.3339 H       1  UNL1        0.1236
     11 C         142.4566  138.8597  156.1537 C.3     1  UNL1        0.1149
     12 C         140.2025  137.6202  154.6100 C.3     1  UNL1        0.0324
     13 C         141.2035  136.7471  155.3072 C.ar    1  UNL1       -0.0038
     14 C         141.0774  135.2543  155.2324 C.ar    1  UNL1        0.0368
     15 C         142.0783  134.3812  155.9295 C.ar    1  UNL1        0.1705
     16 C         143.2053  135.0010  156.7013 C.ar    1  UNL1        0.1682
     17 N         143.3314  136.4938  156.7761 N.ar    1  UNL1       -0.2308
     18 C         142.3305  137.3669  156.0790 C.ar    1  UNL1        0.0726
     19 N         144.2062  134.1280  157.3984 N.am    1  UNL1       -0.2639
     20 C         144.0800  132.6351  157.3236 C.2     1  UNL1        0.2718
     21 O         145.0810  131.7620  158.0208 O.2     1  UNL1       -0.2707
     22 C         142.9531  132.0154  156.5518 C.3     1  UNL1        0.2898
     23 O         141.9521  132.8884  155.8547 O.3     1  UNL1       -0.4628
     24 H         144.9459  134.5347  157.9050 H       1  UNL1        0.1565
     25 C         139.9167  138.1903  162.5059 C.3     1  UNL1        0.0604
     26 C         140.9795  138.0445  163.5543 C.3     1  UNL1        0.1335
     27 O         141.5092  136.9761  162.6444 O.3     1  UNL1       -0.3806
     28 C         142.1531  137.6754  164.4124 C.3     1  UNL1        0.1402
     29 N         142.1266  138.5461  165.6335 N.ar    1  UNL1       -0.2915
     30 C         143.0323  138.6301  166.8263 C.ar    1  UNL1        0.2611
     31 O         144.2223  137.7228  166.9297 O.2     1  UNL1       -0.2670
     32 C         142.7479  139.6213  167.9155 C.ar    1  UNL1        0.0623
     33 C         141.5579  140.5286  167.8121 C.ar    1  UNL1        0.0254
     34 C         140.6522  140.4446  166.6194 C.ar    1  UNL1        0.0972
     35 N         139.4091  141.2143  166.2552 N.ar    1  UNL1       -0.2400
     36 C         138.5974  141.0163  165.0095 C.ar    1  UNL1        0.1282
     37 C         139.0067  139.9808  164.0044 C.ar    1  UNL1        0.1588
     38 F         138.1949  139.7827  162.7587 F       1  UNL1       -0.2027
     39 C         140.2277  139.1434  164.2450 C.ar    1  UNL1        0.0500
     40 C         140.9366  139.4534  165.5301 C.ar    1  UNL1        0.0806
     41 H         142.3089  136.5880  163.0326 H       1  UNL1        0.2108
@<TRIPOS>BOND
     1    12    13    1
     2    13    14   ar
     3    14    15   ar
     4    15    16   ar
     5    16    17   ar
     6    17    18   ar
     7    18    11    1
     8    11     9    1
     9     9     1    1
    10     1     2    1
    11     2     3    1
    12     3     4    1
    13     4    25    1
    14    25    26    1
    15    26    27    1
    16    26    28    1
    17    28    29    1
    18    29    30   ar
    19    30    31    2
    20    30    32   ar
    21    32    33   ar
    22    33    34   ar
    23    34    35   ar
    24    35    36   ar
    25    36    37   ar
    26    37    38    1
    27    37    39   ar
    28    39    40   ar
    29     4     5    1
    30     5     6    1
    31     4     7    1
    32     7     8    1
    33    16    19    1
    34    19    20   am
    35    20    21    2
    36    20    22    1
    37    22    23    1
    38    18    13   ar
    39     6     1    1
    40    23    15    1
    41     8     1    1
    42    39    26    1
    43    40    29   ar
    44    40    34   ar
    45     9    10    1
    46    27    41    1
    47    19    24    1
