@<TRIPOS>MOLECULE
*****
 31 34 0 0 0
SMALL
GASTEIGER

@<TRIPOS>ATOM
      1 C         143.1516  140.3274  164.0560 C.3     1  UNL1        0.0743
      2 C         143.0846  138.8299  164.0001 C.3     1  UNL1        0.0369
      3 C         142.6148  138.1463  162.7503 C.3     1  UNL1        0.0738
      4 N         142.2121  138.9602  161.5564 N.3     1  UNL1       -0.2725
      5 C         142.2791  140.4576  161.6123 C.3     1  UNL1        0.0738
      6 C         142.7489  141.1412  162.8621 C.3     1  UNL1        0.0369
      7 O         141.1592  141.5491  165.9369 O.2     1  UNL1       -0.2747
      8 C         142.6251  141.6219  166.2463 C.2     1  UNL1        0.2269
      9 N         143.6213  141.0110  165.3058 N.am    1  UNL1       -0.3056
     10 H         144.5835  141.0587  165.5089 H       1  UNL1        0.1494
     11 C         143.0948  142.3054  167.4961 C.3     1  UNL1        0.1113
     12 C         142.3113  142.1651  168.7674 C.ar    1  UNL1       -0.0131
     13 C         141.1062  143.0261  169.0047 C.ar    1  UNL1       -0.0038
     14 C         140.3226  142.8857  170.2761 C.ar    1  UNL1       -0.0003
     15 C         140.7442  141.8843  171.3102 C.ar    1  UNL1       -0.0000
     16 C         141.9494  141.0233  171.0730 C.ar    1  UNL1       -0.0003
     17 C         142.7329  141.1637  169.8016 C.ar    1  UNL1       -0.0038
     18 C         141.7424  138.2766  160.3066 C.3     1  UNL1        0.0739
     19 C         140.4005  138.6131  159.7267 C.3     1  UNL1        0.0392
     20 C         139.1576  138.3994  160.5389 C.3     1  UNL1        0.0998
     21 N         138.7017  139.4536  161.5038 N.am    1  UNL1       -0.2529
     22 C         138.2894  140.8045  160.9990 C.2     1  UNL1        0.2739
     23 O         138.3328  141.1014  159.5292 O.2     1  UNL1       -0.2705
     24 C         137.8335  141.8587  161.9638 C.3     1  UNL1        0.2900
     25 O         137.7900  141.5619  163.4335 O.3     1  UNL1       -0.4643
     26 C         138.2024  140.2109  163.9384 C.ar    1  UNL1        0.1528
     27 C         138.1590  139.9141  165.4080 C.ar    1  UNL1        0.0382
     28 C         138.5713  138.5632  165.9128 C.ar    1  UNL1        0.0032
     29 C         139.0272  137.5090  164.9480 C.ar    1  UNL1        0.0015
     30 C         139.0707  137.8058  163.4783 C.ar    1  UNL1        0.0180
     31 C         138.6583  139.1567  162.9735 C.ar    1  UNL1        0.0881
@<TRIPOS>BOND
     1     7     8    2
     2     8    11    1
     3    11    12    1
     4    12    13   ar
     5    13    14   ar
     6    14    15   ar
     7    15    16   ar
     8    16    17   ar
     9     8     9   am
    10     9     1    1
    11     1     2    1
    12     2     3    1
    13     3     4    1
    14     4    18    1
    15    18    19    1
    16    19    20    1
    17    20    21    1
    18    21    22   am
    19    22    23    2
    20    22    24    1
    21    24    25    1
    22    25    26    1
    23    26    27   ar
    24    27    28   ar
    25    28    29   ar
    26    29    30   ar
    27    30    31   ar
    28     4     5    1
    29     5     6    1
    30    17    12   ar
    31     6     1    1
    32    31    21    1
    33    31    26   ar
    34     9    10    1
@<TRIPOS>MOLECULE
*****
 31 34 0 0 0
SMALL
GASTEIGER

@<TRIPOS>ATOM
      1 C         142.9044  140.8065  164.3247 C.3     1  UNL1        0.0743
      2 C         144.0017  139.9433  163.7762 C.3     1  UNL1        0.0369
      3 C         144.1315  139.7464  162.2949 C.3     1  UNL1        0.0738
      4 N         143.1641  140.4125  161.3620 N.3     1  UNL1       -0.2725
      5 C         142.0667  141.2757  161.9105 C.3     1  UNL1        0.0738
      6 C         141.9369  141.4727  163.3919 C.3     1  UNL1        0.0369
      7 O         144.1053  143.2277  165.6269 O.2     1  UNL1       -0.2747
      8 C         143.3750  142.2141  166.4571 C.2     1  UNL1        0.2269
      9 N         142.7746  141.0035  165.8060 N.am    1  UNL1       -0.3056
     10 H         142.2953  140.3382  166.3509 H       1  UNL1        0.1494
     11 C         143.2452  142.4111  167.9384 C.3     1  UNL1        0.1113
     12 C         142.2204  141.6349  168.7113 C.ar    1  UNL1       -0.0131
     13 C         142.5711  140.2943  169.2855 C.ar    1  UNL1       -0.0038
     14 C         141.5462  139.5181  170.0584 C.ar    1  UNL1       -0.0003
     15 C         140.1708  140.0825  170.2569 C.ar    1  UNL1       -0.0000
     16 C         139.8201  141.4231  169.6826 C.ar    1  UNL1       -0.0003
     17 C         140.8448  142.1993  168.9098 C.ar    1  UNL1       -0.0038
     18 C         143.2939  140.2155  159.8808 C.3     1  UNL1        0.0739
     19 C         142.1587  139.6214  159.1008 C.3     1  UNL1        0.0392
     20 C         141.4020  138.4495  159.6524 C.3     1  UNL1        0.0998
     21 N         140.1551  138.6728  160.4558 N.am    1  UNL1       -0.2529
     22 C         138.9567  139.3113  159.8186 C.2     1  UNL1        0.2739
     23 O         139.0051  139.7266  158.3780 O.2     1  UNL1       -0.2705
     24 C         137.7098  139.5346  160.6220 C.3     1  UNL1        0.2900
     25 O         137.6613  139.1194  162.0625 O.3     1  UNL1       -0.4643
     26 C         138.8598  138.4809  162.6998 C.ar    1  UNL1        0.1528
     27 C         138.8113  138.0657  164.1403 C.ar    1  UNL1        0.0382
     28 C         140.0097  137.4272  164.7775 C.ar    1  UNL1        0.0032
     29 C         141.2566  137.2039  163.9741 C.ar    1  UNL1        0.0015
     30 C         141.3051  137.6191  162.5336 C.ar    1  UNL1        0.0180
     31 C         140.1067  138.2576  161.8964 C.ar    1  UNL1        0.0881
@<TRIPOS>BOND
     1     7     8    2
     2     8    11    1
     3    11    12    1
     4    12    13   ar
     5    13    14   ar
     6    14    15   ar
     7    15    16   ar
     8    16    17   ar
     9     8     9   am
    10     9     1    1
    11     1     2    1
    12     2     3    1
    13     3     4    1
    14     4    18    1
    15    18    19    1
    16    19    20    1
    17    20    21    1
    18    21    22   am
    19    22    23    2
    20    22    24    1
    21    24    25    1
    22    25    26    1
    23    26    27   ar
    24    27    28   ar
    25    28    29   ar
    26    29    30   ar
    27    30    31   ar
    28     4     5    1
    29     5     6    1
    30    17    12   ar
    31     6     1    1
    32    31    21    1
    33    31    26   ar
    34     9    10    1
@<TRIPOS>MOLECULE
*****
 31 34 0 0 0
SMALL
GASTEIGER

@<TRIPOS>ATOM
      1 C         140.5349  139.2805  164.4580 C.3     1  UNL1        0.0743
      2 C         141.2345  139.9296  163.3007 C.3     1  UNL1        0.0369
      3 C         140.8827  139.5378  161.8962 C.3     1  UNL1        0.0738
      4 N         139.8314  138.4968  161.6489 N.3     1  UNL1       -0.2725
      5 C         139.1319  137.8477  162.8061 C.3     1  UNL1        0.0738
      6 C         139.4836  138.2395  164.2107 C.3     1  UNL1        0.0369
      7 O         143.0475  138.2366  165.7219 O.2     1  UNL1       -0.2747
      8 C         142.1430  139.1504  166.4945 C.2     1  UNL1        0.2269
      9 N         140.8867  139.6723  165.8625 N.am    1  UNL1       -0.3056
     10 H         140.2930  140.2720  166.3696 H       1  UNL1        0.1494
     11 C         142.4948  139.5422  167.8990 C.3     1  UNL1        0.1113
     12 C         141.6477  140.5380  168.6343 C.ar    1  UNL1       -0.0131
     13 C         142.0441  141.9844  168.6620 C.ar    1  UNL1       -0.0038
     14 C         141.1969  142.9803  169.3973 C.ar    1  UNL1       -0.0003
     15 C         139.9534  142.5298  170.1048 C.ar    1  UNL1       -0.0000
     16 C         139.5570  141.0834  170.0771 C.ar    1  UNL1       -0.0003
     17 C         140.4041  140.0875  169.3418 C.ar    1  UNL1       -0.0038
     18 C         139.4796  138.1050  160.2444 C.3     1  UNL1        0.0739
     19 C         139.3050  139.1603  159.1928 C.3     1  UNL1        0.0392
     20 C         138.2566  140.2199  159.3604 C.3     1  UNL1        0.0998
     21 N         138.6492  141.6020  159.7914 N.am    1  UNL1       -0.2529
     22 C         139.3402  142.5203  158.8275 C.2     1  UNL1        0.2739
     23 O         139.6385  142.0566  157.4324 O.2     1  UNL1       -0.2705
     24 C         139.7329  143.9023  159.2585 C.3     1  UNL1        0.2900
     25 O         139.4346  144.3660  160.6534 O.3     1  UNL1       -0.4643
     26 C         138.7436  143.4477  161.6174 C.ar    1  UNL1        0.1528
     27 C         138.4453  143.9114  163.0124 C.ar    1  UNL1        0.0382
     28 C         137.7543  142.9931  163.9763 C.ar    1  UNL1        0.0032
     29 C         137.3617  141.6111  163.5453 C.ar    1  UNL1        0.0015
     30 C         137.6599  141.1473  162.1504 C.ar    1  UNL1        0.0180
     31 C         138.3509  142.0657  161.1864 C.ar    1  UNL1        0.0881
@<TRIPOS>BOND
     1     7     8    2
     2     8    11    1
     3    11    12    1
     4    12    13   ar
     5    13    14   ar
     6    14    15   ar
     7    15    16   ar
     8    16    17   ar
     9     8     9   am
    10     9     1    1
    11     1     2    1
    12     2     3    1
    13     3     4    1
    14     4    18    1
    15    18    19    1
    16    19    20    1
    17    20    21    1
    18    21    22   am
    19    22    23    2
    20    22    24    1
    21    24    25    1
    22    25    26    1
    23    26    27   ar
    24    27    28   ar
    25    28    29   ar
    26    29    30   ar
    27    30    31   ar
    28     4     5    1
    29     5     6    1
    30    17    12   ar
    31     6     1    1
    32    31    21    1
    33    31    26   ar
    34     9    10    1
@<TRIPOS>MOLECULE
*****
 31 34 0 0 0
SMALL
GASTEIGER

@<TRIPOS>ATOM
      1 C         138.2596  140.8995  164.0040 C.3     1  UNL1        0.0743
      2 C         137.7039  142.2709  163.7573 C.3     1  UNL1        0.0369
      3 C         137.8033  142.8861  162.3929 C.3     1  UNL1        0.0738
      4 N         138.4583  142.1301  161.2752 N.3     1  UNL1       -0.2725
      5 C         139.0140  140.7588  161.5218 C.3     1  UNL1        0.0738
      6 C         138.9146  140.1435  162.8862 C.3     1  UNL1        0.0369
      7 O         140.5564  141.1226  165.9209 O.2     1  UNL1       -0.2747
      8 C         139.3086  140.3958  166.3269 C.2     1  UNL1        0.2269
      9 N         138.1602  140.2843  165.3683 N.am    1  UNL1       -0.3056
     10 H         137.3412  139.8073  165.6348 H       1  UNL1        0.1494
     11 C         139.2092  139.7806  167.6912 C.3     1  UNL1        0.1113
     12 C         140.1230  140.2389  168.7890 C.ar    1  UNL1       -0.0131
     13 C         139.6425  141.2427  169.7947 C.ar    1  UNL1       -0.0038
     14 C         140.5563  141.7010  170.8924 C.ar    1  UNL1       -0.0003
     15 C         141.9505  141.1555  170.9844 C.ar    1  UNL1       -0.0000
     16 C         142.4310  140.1517  169.9787 C.ar    1  UNL1       -0.0003
     17 C         141.5173  139.6934  168.8810 C.ar    1  UNL1       -0.0038
     18 C         138.5577  142.7453  159.9108 C.3     1  UNL1        0.0739
     19 C         139.8941  142.8748  159.2420 C.3     1  UNL1        0.0392
     20 C         140.7349  144.0948  159.4763 C.3     1  UNL1        0.0998
     21 N         141.2548  144.3946  160.8510 N.am    1  UNL1       -0.2529
     22 C         140.5123  145.3449  161.7429 C.2     1  UNL1        0.2739
     23 O         139.2497  145.9954  161.2601 O.2     1  UNL1       -0.2705
     24 C         141.0321  145.6447  163.1176 C.3     1  UNL1        0.2900
     25 O         142.2946  144.9943  163.6004 O.3     1  UNL1       -0.4643
     26 C         143.0372  144.0440  162.7085 C.ar    1  UNL1        0.1528
     27 C         144.2996  143.3936  163.1913 C.ar    1  UNL1        0.0382
     28 C         145.0422  142.4433  162.2994 C.ar    1  UNL1        0.0032
     29 C         144.5223  142.1434  160.9247 C.ar    1  UNL1        0.0015
     30 C         143.2599  142.7939  160.4419 C.ar    1  UNL1        0.0180
     31 C         142.5173  143.7441  161.3338 C.ar    1  UNL1        0.0881
@<TRIPOS>BOND
     1     7     8    2
     2     8    11    1
     3    11    12    1
     4    12    13   ar
     5    13    14   ar
     6    14    15   ar
     7    15    16   ar
     8    16    17   ar
     9     8     9   am
    10     9     1    1
    11     1     2    1
    12     2     3    1
    13     3     4    1
    14     4    18    1
    15    18    19    1
    16    19    20    1
    17    20    21    1
    18    21    22   am
    19    22    23    2
    20    22    24    1
    21    24    25    1
    22    25    26    1
    23    26    27   ar
    24    27    28   ar
    25    28    29   ar
    26    29    30   ar
    27    30    31   ar
    28     4     5    1
    29     5     6    1
    30    17    12   ar
    31     6     1    1
    32    31    21    1
    33    31    26   ar
    34     9    10    1
@<TRIPOS>MOLECULE
*****
 31 34 0 0 0
SMALL
GASTEIGER

@<TRIPOS>ATOM
      1 C         139.0917  140.0844  165.5520 C.3     1  UNL1        0.0743
      2 C         138.2724  141.0426  164.7391 C.3     1  UNL1        0.0369
      3 C         137.8152  140.6585  163.3631 C.3     1  UNL1        0.0738
      4 N         138.1773  139.3163  162.7999 N.3     1  UNL1       -0.2725
      5 C         138.9965  138.3581  163.6127 C.3     1  UNL1        0.0738
      6 C         139.4538  138.7421  164.9887 C.3     1  UNL1        0.0369
      7 O         137.8705  138.7741  167.9586 O.2     1  UNL1       -0.2747
      8 C         138.9383  139.8133  168.1313 C.2     1  UNL1        0.2269
      9 N         139.5489  140.4685  166.9280 N.am    1  UNL1       -0.3056
     10 H         140.2498  141.1505  167.0413 H       1  UNL1        0.1494
     11 C         139.3955  140.1974  169.5073 C.3     1  UNL1        0.1113
     12 C         140.6495  141.0013  169.6838 C.ar    1  UNL1       -0.0131
     13 C         140.5678  142.4881  169.8655 C.ar    1  UNL1       -0.0038
     14 C         141.8219  143.2920  170.0420 C.ar    1  UNL1       -0.0003
     15 C         143.1575  142.6093  170.0367 C.ar    1  UNL1       -0.0000
     16 C         143.2391  141.1226  169.8549 C.ar    1  UNL1       -0.0003
     17 C         141.9851  140.3186  169.6785 C.ar    1  UNL1       -0.0038
     18 C         137.7201  138.9322  161.4239 C.3     1  UNL1        0.0739
     19 C         138.6251  139.1438  160.2465 C.3     1  UNL1        0.0392
     20 C         139.7015  140.1868  160.3059 C.3     1  UNL1        0.0998
     21 N         141.1437  139.7812  160.2316 N.am    1  UNL1       -0.2529
     22 C         141.6685  139.0984  159.0035 C.2     1  UNL1        0.2739
     23 O         140.7511  138.8211  157.8496 O.2     1  UNL1       -0.2705
     24 C         143.1107  138.6929  158.9292 C.3     1  UNL1        0.2900
     25 O         144.0282  138.9701  160.0831 O.3     1  UNL1       -0.4643
     26 C         143.5034  139.6530  161.3113 C.ar    1  UNL1        0.1528
     27 C         144.4208  139.9302  162.4651 C.ar    1  UNL1        0.0382
     28 C         143.8960  140.6131  163.6932 C.ar    1  UNL1        0.0032
     29 C         142.4538  141.0186  163.7675 C.ar    1  UNL1        0.0015
     30 C         141.5364  140.7414  162.6136 C.ar    1  UNL1        0.0180
     31 C         142.0612  140.0585  161.3855 C.ar    1  UNL1        0.0881
@<TRIPOS>BOND
     1     7     8    2
     2     8    11    1
     3    11    12    1
     4    12    13   ar
     5    13    14   ar
     6    14    15   ar
     7    15    16   ar
     8    16    17   ar
     9     8     9   am
    10     9     1    1
    11     1     2    1
    12     2     3    1
    13     3     4    1
    14     4    18    1
    15    18    19    1
    16    19    20    1
    17    20    21    1
    18    21    22   am
    19    22    23    2
    20    22    24    1
    21    24    25    1
    22    25    26    1
    23    26    27   ar
    24    27    28   ar
    25    28    29   ar
    26    29    30   ar
    27    30    31   ar
    28     4     5    1
    29     5     6    1
    30    17    12   ar
    31     6     1    1
    32    31    21    1
    33    31    26   ar
    34     9    10    1
@<TRIPOS>MOLECULE
*****
 31 34 0 0 0
SMALL
GASTEIGER

@<TRIPOS>ATOM
      1 C         142.4883  143.3831  163.4766 C.3     1  UNL1        0.0743
      2 C         141.8828  144.7056  163.1099 C.3     1  UNL1        0.0369
      3 C         141.2607  144.8967  161.7584 C.3     1  UNL1        0.0738
      4 N         141.2441  143.7653  160.7736 N.3     1  UNL1       -0.2725
      5 C         141.8496  142.4429  161.1403 C.3     1  UNL1        0.0738
      6 C         142.4717  142.2518  162.4918 C.3     1  UNL1        0.0369
      7 O         140.9997  141.8984  165.6167 O.2     1  UNL1       -0.2747
      8 C         142.3661  142.4497  165.8981 C.2     1  UNL1        0.2269
      9 N         143.1104  143.1920  164.8281 N.am    1  UNL1       -0.3056
     10 H         144.0071  143.5538  165.0128 H       1  UNL1        0.1494
     11 C         142.9881  142.2586  167.2496 C.3     1  UNL1        0.1113
     12 C         142.2375  141.5298  168.3244 C.ar    1  UNL1       -0.0131
     13 C         142.6149  140.1224  168.6804 C.ar    1  UNL1       -0.0038
     14 C         141.8642  139.3936  169.7553 C.ar    1  UNL1       -0.0003
     15 C         140.7361  140.0722  170.4742 C.ar    1  UNL1       -0.0000
     16 C         140.3586  141.4796  170.1182 C.ar    1  UNL1       -0.0003
     17 C         141.1093  142.2084  169.0434 C.ar    1  UNL1       -0.0038
     18 C         140.6220  143.9564  159.4222 C.3     1  UNL1        0.0739
     19 C         139.8669  142.8316  158.7783 C.3     1  UNL1        0.0392
     20 C         138.4896  142.4813  159.2583 C.3     1  UNL1        0.0998
     21 N         138.3085  141.4393  160.3219 N.am    1  UNL1       -0.2529
     22 C         138.3234  139.9845  159.9569 C.2     1  UNL1        0.2739
     23 O         138.5193  139.5717  158.5281 O.2     1  UNL1       -0.2705
     24 C         138.1423  138.9424  161.0205 C.3     1  UNL1        0.2900
     25 O         137.9464  139.3552  162.4492 O.3     1  UNL1       -0.4643
     26 C         137.9316  140.8100  162.8144 C.ar    1  UNL1        0.1528
     27 C         137.7357  141.2228  164.2430 C.ar    1  UNL1        0.0382
     28 C         137.7208  142.6775  164.6081 C.ar    1  UNL1        0.0032
     29 C         137.9019  143.7196  163.5445 C.ar    1  UNL1        0.0015
     30 C         138.0978  143.3069  162.1158 C.ar    1  UNL1        0.0180
     31 C         138.1126  141.8521  161.7507 C.ar    1  UNL1        0.0881
@<TRIPOS>BOND
     1     7     8    2
     2     8    11    1
     3    11    12    1
     4    12    13   ar
     5    13    14   ar
     6    14    15   ar
     7    15    16   ar
     8    16    17   ar
     9     8     9   am
    10     9     1    1
    11     1     2    1
    12     2     3    1
    13     3     4    1
    14     4    18    1
    15    18    19    1
    16    19    20    1
    17    20    21    1
    18    21    22   am
    19    22    23    2
    20    22    24    1
    21    24    25    1
    22    25    26    1
    23    26    27   ar
    24    27    28   ar
    25    28    29   ar
    26    29    30   ar
    27    30    31   ar
    28     4     5    1
    29     5     6    1
    30    17    12   ar
    31     6     1    1
    32    31    21    1
    33    31    26   ar
    34     9    10    1
@<TRIPOS>MOLECULE
*****
 31 34 0 0 0
SMALL
GASTEIGER

@<TRIPOS>ATOM
      1 C         142.2047  143.7188  161.2391 C.3     1  UNL1        0.0743
      2 C         142.2762  144.5103  162.5114 C.3     1  UNL1        0.0369
      3 C         142.1897  143.8110  163.8356 C.3     1  UNL1        0.0738
      4 N         142.0318  142.3203  163.8876 N.3     1  UNL1       -0.2725
      5 C         141.9603  141.5288  162.6154 C.3     1  UNL1        0.0738
      6 C         142.0468  142.2281  161.2912 C.3     1  UNL1        0.0369
      7 O         139.8012  145.1287  160.1276 O.2     1  UNL1       -0.2747
      8 C         141.0894  145.1231  159.3592 C.2     1  UNL1        0.2269
      9 N         142.2912  144.4181  159.9150 N.am    1  UNL1       -0.3056
     10 H         143.1367  144.4144  159.4106 H       1  UNL1        0.1494
     11 C         141.1759  145.8224  158.0350 C.3     1  UNL1        0.1113
     12 C         140.0851  145.6454  157.0208 C.ar    1  UNL1       -0.0131
     13 C         139.5614  146.8323  156.2677 C.ar    1  UNL1       -0.0038
     14 C         138.4705  146.6552  155.2534 C.ar    1  UNL1       -0.0003
     15 C         137.9033  145.2914  154.9923 C.ar    1  UNL1       -0.0000
     16 C         138.4270  144.1045  155.7454 C.ar    1  UNL1       -0.0003
     17 C         139.5178  144.2815  156.7596 C.ar    1  UNL1       -0.0038
     18 C         141.9453  141.6210  165.2117 C.3     1  UNL1        0.0739
     19 C         140.8868  142.0134  166.1995 C.3     1  UNL1        0.0392
     20 C         139.4753  141.5411  166.0135 C.3     1  UNL1        0.0998
     21 N         138.8075  141.6807  164.6776 N.am    1  UNL1       -0.2529
     22 C         138.3375  143.0266  164.2111 C.2     1  UNL1        0.2739
     23 O         138.5352  144.2329  165.0806 O.2     1  UNL1       -0.2705
     24 C         137.6698  143.1663  162.8752 C.3     1  UNL1        0.2900
     25 O         137.4721  141.9601  162.0058 O.3     1  UNL1       -0.4643
     26 C         137.9421  140.6141  162.4722 C.ar    1  UNL1        0.1528
     27 C         137.7444  139.4079  161.6028 C.ar    1  UNL1        0.0382
     28 C         138.2145  138.0621  162.0692 C.ar    1  UNL1        0.0032
     29 C         138.8822  137.9224  163.4051 C.ar    1  UNL1        0.0015
     30 C         139.0799  139.1286  164.2746 C.ar    1  UNL1        0.0180
     31 C         138.6099  140.4745  163.8081 C.ar    1  UNL1        0.0881
@<TRIPOS>BOND
     1     7     8    2
     2     8    11    1
     3    11    12    1
     4    12    13   ar
     5    13    14   ar
     6    14    15   ar
     7    15    16   ar
     8    16    17   ar
     9     8     9   am
    10     9     1    1
    11     1     2    1
    12     2     3    1
    13     3     4    1
    14     4    18    1
    15    18    19    1
    16    19    20    1
    17    20    21    1
    18    21    22   am
    19    22    23    2
    20    22    24    1
    21    24    25    1
    22    25    26    1
    23    26    27   ar
    24    27    28   ar
    25    28    29   ar
    26    29    30   ar
    27    30    31   ar
    28     4     5    1
    29     5     6    1
    30    17    12   ar
    31     6     1    1
    32    31    21    1
    33    31    26   ar
    34     9    10    1
@<TRIPOS>MOLECULE
*****
 31 34 0 0 0
SMALL
GASTEIGER

@<TRIPOS>ATOM
      1 C         140.8857  139.7542  164.8310 C.3     1  UNL1        0.0743
      2 C         140.5558  140.8275  163.8364 C.3     1  UNL1        0.0369
      3 C         140.6947  140.5572  162.3675 C.3     1  UNL1        0.0738
      4 N         141.1635  139.2136  161.8932 N.3     1  UNL1       -0.2725
      5 C         141.4933  138.1403  162.8878 C.3     1  UNL1        0.0738
      6 C         141.3544  138.4106  164.3568 C.3     1  UNL1        0.0369
      7 O         138.2578  139.2861  166.2004 O.2     1  UNL1       -0.2747
      8 C         139.4328  139.7905  166.9846 C.2     1  UNL1        0.2269
      9 N         140.7467  140.0245  166.2999 N.am    1  UNL1       -0.3056
     10 H         141.5179  140.3555  166.8146 H       1  UNL1        0.1494
     11 C         139.2939  140.0608  168.4535 C.3     1  UNL1        0.1113
     12 C         140.3381  140.8644  169.1702 C.ar    1  UNL1       -0.0131
     13 C         141.4014  140.1705  169.9688 C.ar    1  UNL1       -0.0038
     14 C         142.4456  140.9742  170.6856 C.ar    1  UNL1       -0.0003
     15 C         142.4266  142.4718  170.6036 C.ar    1  UNL1       -0.0000
     16 C         141.3633  143.1658  169.8049 C.ar    1  UNL1       -0.0003
     17 C         140.3191  142.3621  169.0882 C.ar    1  UNL1       -0.0038
     18 C         141.3024  138.9432  160.4244 C.3     1  UNL1        0.0739
     19 C         142.5883  138.3944  159.8811 C.3     1  UNL1        0.0392
     20 C         143.8197  139.2508  159.8597 C.3     1  UNL1        0.0998
     21 N         143.7234  140.7111  160.1888 N.am    1  UNL1       -0.2529
     22 C         143.2319  141.6817  159.1562 C.2     1  UNL1        0.2739
     23 O         142.8367  141.1921  157.7945 O.2     1  UNL1       -0.2705
     24 C         143.1356  143.1420  159.4852 C.3     1  UNL1        0.2900
     25 O         143.5308  143.6317  160.8469 O.3     1  UNL1       -0.4643
     26 C         144.0223  142.6610  161.8795 C.ar    1  UNL1        0.1528
     27 C         144.4175  143.1506  163.2411 C.ar    1  UNL1        0.0382
     28 C         144.9089  142.1800  164.2737 C.ar    1  UNL1        0.0032
     29 C         145.0052  140.7197  163.9446 C.ar    1  UNL1        0.0015
     30 C         144.6101  140.2301  162.5830 C.ar    1  UNL1        0.0180
     31 C         144.1186  141.2007  161.5505 C.ar    1  UNL1        0.0881
@<TRIPOS>BOND
     1     7     8    2
     2     8    11    1
     3    11    12    1
     4    12    13   ar
     5    13    14   ar
     6    14    15   ar
     7    15    16   ar
     8    16    17   ar
     9     8     9   am
    10     9     1    1
    11     1     2    1
    12     2     3    1
    13     3     4    1
    14     4    18    1
    15    18    19    1
    16    19    20    1
    17    20    21    1
    18    21    22   am
    19    22    23    2
    20    22    24    1
    21    24    25    1
    22    25    26    1
    23    26    27   ar
    24    27    28   ar
    25    28    29   ar
    26    29    30   ar
    27    30    31   ar
    28     4     5    1
    29     5     6    1
    30    17    12   ar
    31     6     1    1
    32    31    21    1
    33    31    26   ar
    34     9    10    1
@<TRIPOS>MOLECULE
*****
 31 34 0 0 0
SMALL
GASTEIGER

@<TRIPOS>ATOM
      1 C         140.6351  142.4332  163.8280 C.3     1  UNL1        0.0743
      2 C         139.1909  142.0301  163.8719 C.3     1  UNL1        0.0369
      3 C         138.5056  141.5585  162.6237 C.3     1  UNL1        0.0738
      4 N         139.2644  141.4900  161.3316 N.3     1  UNL1       -0.2725
      5 C         140.7085  141.8930  161.2877 C.3     1  UNL1        0.0738
      6 C         141.3939  142.3647  162.5359 C.3     1  UNL1        0.0369
      7 O         142.1747  140.4914  165.5189 O.2     1  UNL1       -0.2747
      8 C         142.0903  141.9339  165.9216 C.2     1  UNL1        0.2269
      9 N         141.3204  142.9048  165.0761 N.am    1  UNL1       -0.3056
     10 H         141.2650  143.8515  165.3404 H       1  UNL1        0.1494
     11 C         142.7756  142.4055  167.1697 C.3     1  UNL1        0.1113
     12 C         142.1067  142.2374  168.5018 C.ar    1  UNL1       -0.0131
     13 C         142.7710  141.4311  169.5781 C.ar    1  UNL1       -0.0038
     14 C         142.1021  141.2631  170.9102 C.ar    1  UNL1       -0.0003
     15 C         140.7690  141.9013  171.1659 C.ar    1  UNL1       -0.0000
     16 C         140.1047  142.7075  170.0895 C.ar    1  UNL1       -0.0003
     17 C         140.7735  142.8756  168.7574 C.ar    1  UNL1       -0.0038
     18 C         138.5790  141.0184  160.0835 C.3     1  UNL1        0.0739
     19 C         139.3015  140.1181  159.1256 C.3     1  UNL1        0.0392
     20 C         139.5919  138.6965  159.5062 C.3     1  UNL1        0.0998
     21 N         140.7501  138.3827  160.4062 N.am    1  UNL1       -0.2529
     22 C         142.1470  138.3867  159.8598 C.2     1  UNL1        0.2739
     23 O         142.3857  138.7046  158.4134 O.2     1  UNL1       -0.2705
     24 C         143.3053  138.0729  160.7597 C.3     1  UNL1        0.2900
     25 O         143.0667  137.7550  162.2061 O.3     1  UNL1       -0.4643
     26 C         141.6697  137.7509  162.7526 C.ar    1  UNL1        0.1528
     27 C         141.4311  137.4331  164.1989 C.ar    1  UNL1        0.0382
     28 C         140.0342  137.4290  164.7453 C.ar    1  UNL1        0.0032
     29 C         138.8759  137.7429  163.8454 C.ar    1  UNL1        0.0015
     30 C         139.1145  138.0608  162.3990 C.ar    1  UNL1        0.0180
     31 C         140.5114  138.0648  161.8526 C.ar    1  UNL1        0.0881
@<TRIPOS>BOND
     1     7     8    2
     2     8    11    1
     3    11    12    1
     4    12    13   ar
     5    13    14   ar
     6    14    15   ar
     7    15    16   ar
     8    16    17   ar
     9     8     9   am
    10     9     1    1
    11     1     2    1
    12     2     3    1
    13     3     4    1
    14     4    18    1
    15    18    19    1
    16    19    20    1
    17    20    21    1
    18    21    22   am
    19    22    23    2
    20    22    24    1
    21    24    25    1
    22    25    26    1
    23    26    27   ar
    24    27    28   ar
    25    28    29   ar
    26    29    30   ar
    27    30    31   ar
    28     4     5    1
    29     5     6    1
    30    17    12   ar
    31     6     1    1
    32    31    21    1
    33    31    26   ar
    34     9    10    1
