@<TRIPOS>MOLECULE
*****
 28 30 0 0 0
SMALL
GASTEIGER

@<TRIPOS>ATOM
      1 N         143.1809  143.3495  163.4068 N.3     1  UNL1       -0.2724
      2 C         143.8419  143.0988  164.7298 C.3     1  UNL1        0.0721
      3 C         144.1704  141.6969  165.1504 C.3     1  UNL1        0.0174
      4 C         143.8379  140.5457  164.2480 C.3     1  UNL1        0.0031
      5 C         143.1769  140.7964  162.9250 C.3     1  UNL1        0.0174
      6 C         142.8484  142.1982  162.5044 C.3     1  UNL1        0.0721
      7 C         142.8524  144.7513  162.9862 C.3     1  UNL1        0.0769
      8 C         141.6961  145.4713  163.6143 C.3     1  UNL1        0.0467
      9 C         139.2684  145.0301  162.8008 C.ar    1  UNL1        0.1347
     10 C         137.9502  144.3332  162.9640 C.ar    1  UNL1        0.0366
     11 C         137.7414  143.3805  164.1036 C.ar    1  UNL1        0.0031
     12 C         138.8509  143.1248  165.0802 C.ar    1  UNL1       -0.0001
     13 C         140.1690  143.8217  164.9171 C.ar    1  UNL1       -0.0012
     14 C         140.3778  144.7743  163.7774 C.ar    1  UNL1        0.0132
     15 C         140.1105  145.5030  160.3890 C.3     1  UNL1        0.2525
     16 O         139.4771  145.9828  161.6612 O.3     1  UNL1       -0.4717
     17 C         144.1664  139.1439  164.6686 C.3     1  UNL1        0.0049
     18 C         143.4566  138.5254  165.8363 C.3     1  UNL1        0.0294
     19 C         142.0861  139.0007  166.2183 C.ar    1  UNL1        0.0118
     20 C         140.9368  138.8142  165.2726 C.ar    1  UNL1       -0.0013
     21 C         139.5664  139.2894  165.6545 C.ar    1  UNL1       -0.0001
     22 C         139.3452  139.9512  166.9823 C.ar    1  UNL1        0.0031
     23 C         140.4944  140.1378  167.9281 C.ar    1  UNL1        0.0366
     24 C         141.8648  139.6625  167.5461 C.ar    1  UNL1        0.1346
     25 O         143.0140  139.8491  168.4919 O.3     1  UNL1       -0.4727
     26 C         142.8834  140.7869  169.6552 C.3     1  UNL1        0.2434
     27 C         143.6292  142.0884  169.6568 C.3     1  UNL1        0.2403
     28 F         143.9137  142.7914  168.3626 F       1  UNL1       -0.2302
@<TRIPOS>BOND
     1    15    16    1
     2    16     9    1
     3     9    10   ar
     4    10    11   ar
     5    11    12   ar
     6    12    13   ar
     7    13    14   ar
     8    14     8    1
     9     8     7    1
    10     7     1    1
    11     1     2    1
    12     2     3    1
    13     3     4    1
    14     4    17    1
    15    17    18    1
    16    18    19    1
    17    19    20   ar
    18    20    21   ar
    19    21    22   ar
    20    22    23   ar
    21    23    24   ar
    22    24    25    1
    23    25    26    1
    24    26    27    1
    25    27    28    1
    26     4     5    1
    27     5     6    1
    28    14     9   ar
    29     6     1    1
    30    24    19   ar
@<TRIPOS>MOLECULE
*****
 28 30 0 0 0
SMALL
GASTEIGER

@<TRIPOS>ATOM
      1 N         140.4173  143.5030  164.2107 N.3     1  UNL1       -0.2724
      2 C         140.3831  143.0770  165.6485 C.3     1  UNL1        0.0721
      3 C         139.9076  141.7015  166.0121 C.3     1  UNL1        0.0174
      4 C         139.4663  140.7522  164.9379 C.3     1  UNL1        0.0031
      5 C         139.5006  141.1782  163.5000 C.3     1  UNL1        0.0174
      6 C         139.9761  142.5535  163.1364 C.3     1  UNL1        0.0721
      7 C         140.8928  144.8783  163.8471 C.3     1  UNL1        0.0769
      8 C         142.3548  145.2076  163.9105 C.3     1  UNL1        0.0467
      9 C         143.6337  143.7554  162.1768 C.ar    1  UNL1        0.1347
     10 C         144.6542  142.7008  161.8662 C.ar    1  UNL1        0.0366
     11 C         145.4162  142.0438  162.9787 C.ar    1  UNL1        0.0031
     12 C         145.1578  142.4414  164.4018 C.ar    1  UNL1       -0.0001
     13 C         144.1374  143.4960  164.7123 C.ar    1  UNL1       -0.0012
     14 C         143.3753  144.1530  163.5999 C.ar    1  UNL1        0.0132
     15 C         141.9969  143.5892  160.1661 C.3     1  UNL1        0.2525
     16 O         142.8717  144.4124  161.0643 O.3     1  UNL1       -0.4717
     17 C         138.9909  139.3768  165.3015 C.3     1  UNL1        0.0049
     18 C         139.9191  138.2051  165.1773 C.3     1  UNL1        0.0294
     19 C         141.2733  138.3835  164.5573 C.ar    1  UNL1        0.0118
     20 C         142.3797  139.0224  165.3433 C.ar    1  UNL1       -0.0013
     21 C         143.7339  139.2008  164.7234 C.ar    1  UNL1       -0.0001
     22 C         143.9817  138.7404  163.3175 C.ar    1  UNL1        0.0031
     23 C         142.8753  138.1016  162.5315 C.ar    1  UNL1        0.0366
     24 C         141.5211  137.9232  163.1514 C.ar    1  UNL1        0.1346
     25 O         140.4147  137.2843  162.3654 O.3     1  UNL1       -0.4727
     26 C         139.5164  138.1294  161.5117 C.3     1  UNL1        0.2434
     27 C         138.0450  138.1853  161.7977 C.3     1  UNL1        0.2403
     28 F         137.3147  139.4933  161.7187 F       1  UNL1       -0.2302
@<TRIPOS>BOND
     1    15    16    1
     2    16     9    1
     3     9    10   ar
     4    10    11   ar
     5    11    12   ar
     6    12    13   ar
     7    13    14   ar
     8    14     8    1
     9     8     7    1
    10     7     1    1
    11     1     2    1
    12     2     3    1
    13     3     4    1
    14     4    17    1
    15    17    18    1
    16    18    19    1
    17    19    20   ar
    18    20    21   ar
    19    21    22   ar
    20    22    23   ar
    21    23    24   ar
    22    24    25    1
    23    25    26    1
    24    26    27    1
    25    27    28    1
    26     4     5    1
    27     5     6    1
    28    14     9   ar
    29     6     1    1
    30    24    19   ar
@<TRIPOS>MOLECULE
*****
 28 30 0 0 0
SMALL
GASTEIGER

@<TRIPOS>ATOM
      1 N         139.4077  142.8536  162.7432 N.3     1  UNL1       -0.2724
      2 C         140.6512  142.5438  161.9636 C.3     1  UNL1        0.0721
      3 C         141.9854  143.0153  162.4614 C.3     1  UNL1        0.0174
      4 C         142.0760  143.7966  163.7386 C.3     1  UNL1        0.0031
      5 C         140.8325  144.1064  164.5181 C.3     1  UNL1        0.0174
      6 C         139.4984  143.6349  164.0205 C.3     1  UNL1        0.0721
      7 C         138.0735  142.3821  162.2455 C.3     1  UNL1        0.0769
      8 C         137.2790  141.3959  163.0493 C.3     1  UNL1        0.0467
      9 C         138.2369  138.9911  162.8265 C.ar    1  UNL1        0.1347
     10 C         138.9160  137.8016  163.4378 C.ar    1  UNL1        0.0366
     11 C         139.3163  137.8271  164.8832 C.ar    1  UNL1        0.0031
     12 C         139.0374  139.0422  165.7173 C.ar    1  UNL1       -0.0001
     13 C         138.3584  140.2318  165.1060 C.ar    1  UNL1       -0.0012
     14 C         137.9581  140.2062  163.6606 C.ar    1  UNL1        0.0132
     15 C         138.8678  139.1813  160.3134 C.3     1  UNL1        0.2525
     16 O         137.8366  138.9656  161.3811 O.3     1  UNL1       -0.4717
     17 C         143.4101  144.2681  164.2362 C.3     1  UNL1        0.0049
     18 C         144.2904  143.3385  165.0178 C.3     1  UNL1        0.0294
     19 C         143.7001  142.1339  165.6891 C.ar    1  UNL1        0.0118
     20 C         143.0576  142.2665  167.0381 C.ar    1  UNL1       -0.0013
     21 C         142.4674  141.0620  167.7094 C.ar    1  UNL1       -0.0001
     22 C         142.5196  139.7248  167.0318 C.ar    1  UNL1        0.0031
     23 C         143.1621  139.5922  165.6829 C.ar    1  UNL1        0.0366
     24 C         143.7524  140.7967  165.0115 C.ar    1  UNL1        0.1346
     25 O         144.3949  140.6640  163.6626 O.3     1  UNL1       -0.4727
     26 C         144.1454  139.4415  162.8300 C.3     1  UNL1        0.2434
     27 C         142.8706  139.3126  162.0501 C.3     1  UNL1        0.2403
     28 F         141.5516  139.5478  162.7246 F       1  UNL1       -0.2302
@<TRIPOS>BOND
     1    15    16    1
     2    16     9    1
     3     9    10   ar
     4    10    11   ar
     5    11    12   ar
     6    12    13   ar
     7    13    14   ar
     8    14     8    1
     9     8     7    1
    10     7     1    1
    11     1     2    1
    12     2     3    1
    13     3     4    1
    14     4    17    1
    15    17    18    1
    16    18    19    1
    17    19    20   ar
    18    20    21   ar
    19    21    22   ar
    20    22    23   ar
    21    23    24   ar
    22    24    25    1
    23    25    26    1
    24    26    27    1
    25    27    28    1
    26     4     5    1
    27     5     6    1
    28    14     9   ar
    29     6     1    1
    30    24    19   ar
@<TRIPOS>MOLECULE
*****
 28 30 0 0 0
SMALL
GASTEIGER

@<TRIPOS>ATOM
      1 N         143.0076  143.2464  163.3479 N.3     1  UNL1       -0.2724
      2 C         142.4507  142.2449  162.3799 C.3     1  UNL1        0.0721
      3 C         142.5844  140.7772  162.6593 C.3     1  UNL1        0.0174
      4 C         143.2749  140.3110  163.9066 C.3     1  UNL1        0.0031
      5 C         143.8317  141.3125  164.8746 C.3     1  UNL1        0.0174
      6 C         143.6981  142.7801  164.5953 C.3     1  UNL1        0.0721
      7 C         142.8739  144.7140  163.0685 C.3     1  UNL1        0.0769
      8 C         141.7158  145.4825  163.6327 C.3     1  UNL1        0.0467
      9 C         139.3008  145.0478  162.7787 C.ar    1  UNL1        0.1347
     10 C         137.9662  144.3823  162.9395 C.ar    1  UNL1        0.0366
     11 C         137.7119  143.4859  164.1150 C.ar    1  UNL1        0.0031
     12 C         138.7922  143.2550  165.1297 C.ar    1  UNL1       -0.0001
     13 C         140.1268  143.9205  164.9689 C.ar    1  UNL1       -0.0012
     14 C         140.3811  144.8169  163.7934 C.ar    1  UNL1        0.0132
     15 C         140.2395  145.4044  160.3826 C.3     1  UNL1        0.2525
     16 O         139.5552  145.9443  161.6033 O.3     1  UNL1       -0.4717
     17 C         143.4086  138.8433  164.1859 C.3     1  UNL1        0.0049
     18 C         142.5533  138.1988  165.2362 C.3     1  UNL1        0.0294
     19 C         141.1580  138.6948  165.4755 C.ar    1  UNL1        0.0118
     20 C         140.8750  139.6102  166.6296 C.ar    1  UNL1       -0.0013
     21 C         139.4797  140.1062  166.8688 C.ar    1  UNL1       -0.0001
     22 C         138.3675  139.6867  165.9540 C.ar    1  UNL1        0.0031
     23 C         138.6505  138.7712  164.8000 C.ar    1  UNL1        0.0366
     24 C         140.0457  138.2753  164.5607 C.ar    1  UNL1        0.1346
     25 O         140.3287  137.3598  163.4066 O.3     1  UNL1       -0.4727
     26 C         140.4203  137.9131  162.0154 C.3     1  UNL1        0.2434
     27 C         139.1814  138.0554  161.1819 C.3     1  UNL1        0.2403
     28 F         137.8359  137.7790  161.7847 F       1  UNL1       -0.2302
@<TRIPOS>BOND
     1    15    16    1
     2    16     9    1
     3     9    10   ar
     4    10    11   ar
     5    11    12   ar
     6    12    13   ar
     7    13    14   ar
     8    14     8    1
     9     8     7    1
    10     7     1    1
    11     1     2    1
    12     2     3    1
    13     3     4    1
    14     4    17    1
    15    17    18    1
    16    18    19    1
    17    19    20   ar
    18    20    21   ar
    19    21    22   ar
    20    22    23   ar
    21    23    24   ar
    22    24    25    1
    23    25    26    1
    24    26    27    1
    25    27    28    1
    26     4     5    1
    27     5     6    1
    28    14     9   ar
    29     6     1    1
    30    24    19   ar
@<TRIPOS>MOLECULE
*****
 28 30 0 0 0
SMALL
GASTEIGER

@<TRIPOS>ATOM
      1 N         139.4242  142.9537  162.6970 N.3     1  UNL1       -0.2724
      2 C         140.6562  142.4817  161.9833 C.3     1  UNL1        0.0721
      3 C         142.0120  142.8961  162.4735 C.3     1  UNL1        0.0174
      4 C         142.1357  143.7824  163.6772 C.3     1  UNL1        0.0031
      5 C         140.9037  144.2544  164.3909 C.3     1  UNL1        0.0174
      6 C         139.5480  143.8401  163.9008 C.3     1  UNL1        0.0721
      7 C         138.0684  142.5394  162.2069 C.3     1  UNL1        0.0769
      8 C         137.2559  141.5534  162.9928 C.3     1  UNL1        0.0467
      9 C         138.2038  139.1549  162.6780 C.ar    1  UNL1        0.1347
     10 C         138.8565  137.9309  163.2486 C.ar    1  UNL1        0.0366
     11 C         139.2141  137.8811  164.7045 C.ar    1  UNL1        0.0031
     12 C         138.9190  139.0554  165.5898 C.ar    1  UNL1       -0.0001
     13 C         138.2663  140.2795  165.0192 C.ar    1  UNL1       -0.0012
     14 C         137.9087  140.3292  163.5633 C.ar    1  UNL1        0.0132
     15 C         138.9285  139.2074  160.1836 C.3     1  UNL1        0.2525
     16 O         137.8461  139.2047  161.2221 O.3     1  UNL1       -0.4717
     17 C         143.4915  144.1967  164.1673 C.3     1  UNL1        0.0049
     18 C         144.2134  143.3549  165.1773 C.3     1  UNL1        0.0294
     19 C         143.9707  141.8756  165.2318 C.ar    1  UNL1        0.0118
     20 C         144.7475  140.9548  164.3381 C.ar    1  UNL1       -0.0013
     21 C         144.5049  139.4756  164.3925 C.ar    1  UNL1       -0.0001
     22 C         143.4854  138.9172  165.3405 C.ar    1  UNL1        0.0031
     23 C         142.7086  139.8381  166.2342 C.ar    1  UNL1        0.0366
     24 C         142.9513  141.3173  166.1798 C.ar    1  UNL1        0.1346
     25 O         142.1744  142.2381  167.0735 O.3     1  UNL1       -0.4727
     26 C         140.7126  141.9983  167.3087 C.3     1  UNL1        0.2434
     27 C         140.2496  141.3998  168.6038 C.3     1  UNL1        0.2403
     28 F         139.7422  139.9886  168.6389 F       1  UNL1       -0.2302
@<TRIPOS>BOND
     1    15    16    1
     2    16     9    1
     3     9    10   ar
     4    10    11   ar
     5    11    12   ar
     6    12    13   ar
     7    13    14   ar
     8    14     8    1
     9     8     7    1
    10     7     1    1
    11     1     2    1
    12     2     3    1
    13     3     4    1
    14     4    17    1
    15    17    18    1
    16    18    19    1
    17    19    20   ar
    18    20    21   ar
    19    21    22   ar
    20    22    23   ar
    21    23    24   ar
    22    24    25    1
    23    25    26    1
    24    26    27    1
    25    27    28    1
    26     4     5    1
    27     5     6    1
    28    14     9   ar
    29     6     1    1
    30    24    19   ar
@<TRIPOS>MOLECULE
*****
 28 30 0 0 0
SMALL
GASTEIGER

@<TRIPOS>ATOM
      1 N         140.3224  142.7743  165.7988 N.3     1  UNL1       -0.2724
      2 C         141.7081  142.7358  165.2258 C.3     1  UNL1        0.0721
      3 C         142.6243  141.5945  165.5547 C.3     1  UNL1        0.0174
      4 C         142.1548  140.4918  166.4567 C.3     1  UNL1        0.0031
      5 C         140.7692  140.5303  167.0297 C.3     1  UNL1        0.0174
      6 C         139.8530  141.6715  166.7008 C.3     1  UNL1        0.0721
      7 C         139.4062  143.9155  165.4699 C.3     1  UNL1        0.0769
      8 C         138.1087  143.6560  164.7635 C.3     1  UNL1        0.0467
      9 C         138.3116  143.3511  162.1914 C.ar    1  UNL1        0.1347
     10 C         138.2804  142.4645  160.9819 C.ar    1  UNL1        0.0366
     11 C         138.0151  140.9961  161.1350 C.ar    1  UNL1        0.0031
     12 C         137.7809  140.4143  162.4976 C.ar    1  UNL1       -0.0001
     13 C         137.8121  141.3009  163.7071 C.ar    1  UNL1       -0.0012
     14 C         138.0775  142.7693  163.5540 C.ar    1  UNL1        0.0132
     15 C         139.9878  145.3220  161.9553 C.3     1  UNL1        0.2525
     16 O         138.5770  144.8195  162.0383 O.3     1  UNL1       -0.4717
     17 C         143.0710  139.3506  166.7856 C.3     1  UNL1        0.0049
     18 C         143.2207  138.2082  165.8251 C.3     1  UNL1        0.0294
     19 C         142.3473  138.1323  164.6080 C.ar    1  UNL1        0.0118
     20 C         140.9580  137.5770  164.7153 C.ar    1  UNL1       -0.0013
     21 C         140.0846  137.5011  163.4982 C.ar    1  UNL1       -0.0001
     22 C         140.6005  137.9804  162.1738 C.ar    1  UNL1        0.0031
     23 C         141.9898  138.5357  162.0665 C.ar    1  UNL1        0.0366
     24 C         142.8632  138.6116  163.2836 C.ar    1  UNL1        0.1346
     25 O         144.2525  139.1669  163.1763 O.3     1  UNL1       -0.4727
     26 C         144.5108  140.3849  162.3399 C.3     1  UNL1        0.2434
     27 C         145.2753  141.5407  162.9141 C.3     1  UNL1        0.2403
     28 F         146.1008  141.3528  164.1524 F       1  UNL1       -0.2302
@<TRIPOS>BOND
     1    15    16    1
     2    16     9    1
     3     9    10   ar
     4    10    11   ar
     5    11    12   ar
     6    12    13   ar
     7    13    14   ar
     8    14     8    1
     9     8     7    1
    10     7     1    1
    11     1     2    1
    12     2     3    1
    13     3     4    1
    14     4    17    1
    15    17    18    1
    16    18    19    1
    17    19    20   ar
    18    20    21   ar
    19    21    22   ar
    20    22    23   ar
    21    23    24   ar
    22    24    25    1
    23    25    26    1
    24    26    27    1
    25    27    28    1
    26     4     5    1
    27     5     6    1
    28    14     9   ar
    29     6     1    1
    30    24    19   ar
@<TRIPOS>MOLECULE
*****
 28 30 0 0 0
SMALL
GASTEIGER

@<TRIPOS>ATOM
      1 N         139.1683  139.0410  163.3184 N.3     1  UNL1       -0.2724
      2 C         138.5613  139.3299  164.6593 C.3     1  UNL1        0.0721
      3 C         138.1928  140.7363  165.0285 C.3     1  UNL1        0.0174
      4 C         138.4313  141.8538  164.0567 C.3     1  UNL1        0.0031
      5 C         139.0382  141.5648  162.7157 C.3     1  UNL1        0.0174
      6 C         139.4067  140.1585  162.3466 C.3     1  UNL1        0.0721
      7 C         139.5368  137.6346  162.9492 C.3     1  UNL1        0.0769
      8 C         140.7829  137.0144  163.5083 C.3     1  UNL1        0.0467
      9 C         142.9474  138.2439  162.7644 C.ar    1  UNL1        0.1347
     10 C         144.1308  139.1047  163.0936 C.ar    1  UNL1        0.0366
     11 C         144.3333  139.5968  164.4961 C.ar    1  UNL1        0.0031
     12 C         143.3523  139.2281  165.5692 C.ar    1  UNL1       -0.0001
     13 C         142.1689  138.3674  165.2400 C.ar    1  UNL1       -0.0012
     14 C         141.9664  137.8753  163.8375 C.ar    1  UNL1        0.0132
     15 C         142.1835  138.6712  160.3182 C.3     1  UNL1        0.2525
     16 O         142.7449  137.7518  161.3619 O.3     1  UNL1       -0.4717
     17 C         138.0628  143.2601  164.4259 C.3     1  UNL1        0.0049
     18 C         139.0285  144.1108  165.1964 C.3     1  UNL1        0.0294
     19 C         140.5015  143.9958  164.9373 C.ar    1  UNL1        0.0118
     20 C         141.1412  144.8253  163.8636 C.ar    1  UNL1       -0.0013
     21 C         142.6141  144.7102  163.6045 C.ar    1  UNL1       -0.0001
     22 C         143.4474  143.7657  164.4190 C.ar    1  UNL1        0.0031
     23 C         142.8077  142.9363  165.4927 C.ar    1  UNL1        0.0366
     24 C         141.3348  143.0513  165.7518 C.ar    1  UNL1        0.1346
     25 O         140.6951  142.2218  166.8255 O.3     1  UNL1       -0.4727
     26 C         141.1162  142.3912  168.2551 C.3     1  UNL1        0.2434
     27 C         140.3830  143.3513  169.1443 C.3     1  UNL1        0.2403
     28 F         141.1480  144.2497  170.0704 F       1  UNL1       -0.2302
@<TRIPOS>BOND
     1    15    16    1
     2    16     9    1
     3     9    10   ar
     4    10    11   ar
     5    11    12   ar
     6    12    13   ar
     7    13    14   ar
     8    14     8    1
     9     8     7    1
    10     7     1    1
    11     1     2    1
    12     2     3    1
    13     3     4    1
    14     4    17    1
    15    17    18    1
    16    18    19    1
    17    19    20   ar
    18    20    21   ar
    19    21    22   ar
    20    22    23   ar
    21    23    24   ar
    22    24    25    1
    23    25    26    1
    24    26    27    1
    25    27    28    1
    26     4     5    1
    27     5     6    1
    28    14     9   ar
    29     6     1    1
    30    24    19   ar
@<TRIPOS>MOLECULE
*****
 28 30 0 0 0
SMALL
GASTEIGER

@<TRIPOS>ATOM
      1 N         144.1361  140.7819  163.4610 N.3     1  UNL1       -0.2724
      2 C         143.8988  139.5544  164.2898 C.3     1  UNL1        0.0721
      3 C         142.9430  138.5010  163.8135 C.3     1  UNL1        0.0174
      4 C         142.2244  138.6751  162.5084 C.3     1  UNL1        0.0031
      5 C         142.4616  139.9027  161.6796 C.3     1  UNL1        0.0174
      6 C         143.4174  140.9560  162.1558 C.3     1  UNL1        0.0721
      7 C         145.0919  141.8352  163.9372 C.3     1  UNL1        0.0769
      8 C         144.6041  142.9482  164.8166 C.3     1  UNL1        0.0467
      9 C         142.1833  143.7904  164.3921 C.ar    1  UNL1        0.1347
     10 C         140.7395  143.8505  164.7944 C.ar    1  UNL1        0.0366
     11 C         140.2728  143.1286  166.0237 C.ar    1  UNL1        0.0031
     12 C         141.2499  142.3466  166.8506 C.ar    1  UNL1       -0.0001
     13 C         142.6936  142.2865  166.4482 C.ar    1  UNL1       -0.0012
     14 C         143.1603  143.0084  165.2189 C.ar    1  UNL1        0.0132
     15 C         141.9312  144.3180  161.8607 C.3     1  UNL1        0.2525
     16 O         142.6499  144.5123  163.1628 O.3     1  UNL1       -0.4717
     17 C         141.2686  137.6218  162.0321 C.3     1  UNL1        0.0049
     18 C         139.7900  137.8330  162.1702 C.3     1  UNL1        0.0294
     19 C         139.2290  138.4022  163.4397 C.ar    1  UNL1        0.0118
     20 C         139.1212  137.5421  164.6639 C.ar    1  UNL1       -0.0013
     21 C         138.5602  138.1111  165.9333 C.ar    1  UNL1       -0.0001
     22 C         138.1071  139.5403  165.9786 C.ar    1  UNL1        0.0031
     23 C         138.2150  140.4004  164.7544 C.ar    1  UNL1        0.0366
     24 C         138.7759  139.8314  163.4850 C.ar    1  UNL1        0.1346
     25 O         138.8838  140.6915  162.2608 O.3     1  UNL1       -0.4727
     26 C         137.8338  141.7237  161.9746 C.3     1  UNL1        0.2434
     27 C         138.1490  143.1806  162.1419 C.3     1  UNL1        0.2403
     28 F         137.3095  144.0301  163.0495 F       1  UNL1       -0.2302
@<TRIPOS>BOND
     1    15    16    1
     2    16     9    1
     3     9    10   ar
     4    10    11   ar
     5    11    12   ar
     6    12    13   ar
     7    13    14   ar
     8    14     8    1
     9     8     7    1
    10     7     1    1
    11     1     2    1
    12     2     3    1
    13     3     4    1
    14     4    17    1
    15    17    18    1
    16    18    19    1
    17    19    20   ar
    18    20    21   ar
    19    21    22   ar
    20    22    23   ar
    21    23    24   ar
    22    24    25    1
    23    25    26    1
    24    26    27    1
    25    27    28    1
    26     4     5    1
    27     5     6    1
    28    14     9   ar
    29     6     1    1
    30    24    19   ar
@<TRIPOS>MOLECULE
*****
 28 30 0 0 0
SMALL
GASTEIGER

@<TRIPOS>ATOM
      1 N         140.6823  143.9302  163.5155 N.3     1  UNL1       -0.2724
      2 C         140.3438  142.7726  162.6236 C.3     1  UNL1        0.0721
      3 C         139.5341  141.6275  163.1558 C.3     1  UNL1        0.0174
      4 C         139.0629  141.6399  164.5798 C.3     1  UNL1        0.0031
      5 C         139.4014  142.7975  165.4717 C.3     1  UNL1        0.0174
      6 C         140.2110  143.9426  164.9396 C.3     1  UNL1        0.0721
      7 C         141.4919  145.0753  162.9834 C.3     1  UNL1        0.0769
      8 C         142.9599  145.1577  163.2803 C.3     1  UNL1        0.0467
      9 C         144.1398  143.2135  162.0241 C.ar    1  UNL1        0.1347
     10 C         144.9709  141.9651  162.0502 C.ar    1  UNL1        0.0366
     11 C         145.4533  141.4125  163.3586 C.ar    1  UNL1        0.0031
     12 C         145.1046  142.1083  164.6409 C.ar    1  UNL1       -0.0001
     13 C         144.2735  143.3566  164.6148 C.ar    1  UNL1       -0.0012
     14 C         143.7911  143.9093  163.3064 C.ar    1  UNL1        0.0132
     15 C         142.7339  142.9566  159.8545 C.3     1  UNL1        0.2525
     16 O         143.6574  143.7661  160.7157 O.3     1  UNL1       -0.4717
     17 C         138.2533  140.4949  165.1119 C.3     1  UNL1        0.0049
     18 C         138.8436  139.5706  166.1353 C.3     1  UNL1        0.0294
     19 C         140.3254  139.3407  166.1723 C.ar    1  UNL1        0.0118
     20 C         140.9738  138.4615  165.1444 C.ar    1  UNL1       -0.0013
     21 C         142.4556  138.2316  165.1813 C.ar    1  UNL1       -0.0001
     22 C         143.2890  138.8809  166.2461 C.ar    1  UNL1        0.0031
     23 C         142.6406  139.7602  167.2739 C.ar    1  UNL1        0.0366
     24 C         141.1588  139.9901  167.2370 C.ar    1  UNL1        0.1346
     25 O         140.5104  140.8693  168.2649 O.3     1  UNL1       -0.4727
     26 C         141.1822  142.1389  168.6972 C.3     1  UNL1        0.2434
     27 C         140.3584  143.3008  169.1676 C.3     1  UNL1        0.2403
     28 F         140.9892  144.3812  169.9952 F       1  UNL1       -0.2302
@<TRIPOS>BOND
     1    15    16    1
     2    16     9    1
     3     9    10   ar
     4    10    11   ar
     5    11    12   ar
     6    12    13   ar
     7    13    14   ar
     8    14     8    1
     9     8     7    1
    10     7     1    1
    11     1     2    1
    12     2     3    1
    13     3     4    1
    14     4    17    1
    15    17    18    1
    16    18    19    1
    17    19    20   ar
    18    20    21   ar
    19    21    22   ar
    20    22    23   ar
    21    23    24   ar
    22    24    25    1
    23    25    26    1
    24    26    27    1
    25    27    28    1
    26     4     5    1
    27     5     6    1
    28    14     9   ar
    29     6     1    1
    30    24    19   ar
