@<TRIPOS>MOLECULE
*****
 20 22 0 0 0
SMALL
GASTEIGER

@<TRIPOS>ATOM
      1 C         141.1277  142.2559  165.5520 C.2     1  UNL1        0.1818
      2 O         142.2392  142.0116  164.5750 O.2     1  UNL1       -0.2903
      3 C         141.4085  142.2460  167.0255 C.2     1  UNL1        0.0183
      4 C         142.8226  142.1650  167.5190 C.2     1  UNL1        0.0005
      5 C         143.1034  142.1550  168.9925 C.2     1  UNL1        0.0204
      6 C         141.9700  142.2261  169.9724 C.2     1  UNL1        0.1007
      7 N         141.9389  142.2346  171.4721 N.2     1  UNL1       -0.1482
      8 N         140.5054  142.3209  171.9054 N.2     1  UNL1       -0.1467
      9 C         139.6506  142.3657  170.6735 C.2     1  UNL1        0.1197
     10 C         140.5558  142.3071  169.4789 C.2     1  UNL1        0.0226
     11 C         140.2751  142.3171  168.0054 C.3     1  UNL1        0.0588
     12 C         139.7352  142.5103  165.0557 C.3     1  UNL1        0.0977
     13 C         138.3266  142.4519  164.5433 C.3     1  UNL1        0.0233
     14 C         137.8244  143.8587  164.4069 C.3     1  UNL1        0.0189
     15 C         138.9225  144.7865  164.8348 C.3     1  UNL1        0.0689
     16 N         140.1035  143.9532  165.2358 N.3     1  UNL1       -0.2938
     17 H         140.3373  144.1315  166.2125 H       1  UNL1        0.1235
     18 C         139.6580  141.0142  164.9793 C.3     1  UNL1        0.0219
     19 C         138.4048  139.2204  166.3800 C.3     1  UNL1        0.0001
     20 C         138.3865  140.3090  165.3482 C.3     1  UNL1        0.0018
@<TRIPOS>BOND
     1    19    20    1
     2    20    18    1
     3    18    12    1
     4    12     1    1
     5     1     2    2
     6     1     3    1
     7     3     4    2
     8     4     5    1
     9     5     6    2
    10     6     7    1
    11     7     8    2
    12     8     9    1
    13     9    10    2
    14    10    11    1
    15    12    13    1
    16    13    14    1
    17    14    15    1
    18    15    16    1
    19    16    12    1
    20    11     3    1
    21    10     6    1
    22    16    17    1
@<TRIPOS>MOLECULE
*****
 20 22 0 0 0
SMALL
GASTEIGER

@<TRIPOS>ATOM
      1 C         141.3887  141.8523  165.0595 C.2     1  UNL1        0.1818
      2 O         141.5524  140.6532  164.1735 O.2     1  UNL1       -0.2903
      3 C         140.8511  141.6894  166.4504 C.2     1  UNL1        0.0183
      4 C         140.1874  140.4058  166.8524 C.2     1  UNL1        0.0005
      5 C         139.6499  140.2429  168.2433 C.2     1  UNL1        0.0204
      6 C         139.7762  141.3637  169.2322 C.2     1  UNL1        0.1007
      7 N         139.3452  141.4930  170.6631 N.2     1  UNL1       -0.1482
      8 N         139.7427  142.8566  171.1454 N.2     1  UNL1       -0.1467
      9 C         140.4192  143.5701  170.0126 C.2     1  UNL1        0.1197
     10 C         140.4399  142.6474  168.8301 C.2     1  UNL1        0.0226
     11 C         140.9774  142.8102  167.4392 C.3     1  UNL1        0.0588
     12 C         141.7624  143.2145  164.5547 C.3     1  UNL1        0.0977
     13 C         141.8279  144.6071  164.0011 C.3     1  UNL1        0.0233
     14 C         143.2647  145.0375  163.9978 C.3     1  UNL1        0.0189
     15 C         144.0873  143.9109  164.5493 C.3     1  UNL1        0.0689
     16 N         143.1588  142.7842  164.8935 N.3     1  UNL1       -0.2938
     17 H         143.2242  142.5738  165.8894 H       1  UNL1        0.1235
     18 C         140.2878  143.3600  164.3214 C.3     1  UNL1        0.0219
     19 C         138.5265  144.8650  165.4974 C.3     1  UNL1        0.0001
     20 C         139.6293  144.6965  164.4947 C.3     1  UNL1        0.0018
@<TRIPOS>BOND
     1    19    20    1
     2    20    18    1
     3    18    12    1
     4    12     1    1
     5     1     2    2
     6     1     3    1
     7     3     4    2
     8     4     5    1
     9     5     6    2
    10     6     7    1
    11     7     8    2
    12     8     9    1
    13     9    10    2
    14    10    11    1
    15    12    13    1
    16    13    14    1
    17    14    15    1
    18    15    16    1
    19    16    12    1
    20    11     3    1
    21    10     6    1
    22    16    17    1
@<TRIPOS>MOLECULE
*****
 20 22 0 0 0
SMALL
GASTEIGER

@<TRIPOS>ATOM
      1 C         140.8232  140.6017  165.6778 C.2     1  UNL1        0.1818
      2 O         140.9416  141.8531  164.8594 O.2     1  UNL1       -0.2903
      3 C         141.0042  140.6587  167.1658 C.2     1  UNL1        0.0183
      4 C         141.8943  139.6652  167.8516 C.2     1  UNL1        0.0005
      5 C         142.0753  139.7222  169.3397 C.2     1  UNL1        0.0204
      6 C         141.3661  140.7728  170.1417 C.2     1  UNL1        0.1007
      7 N         141.3512  141.0740  171.6110 N.2     1  UNL1       -0.1482
      8 N         140.4518  142.2537  171.8332 N.2     1  UNL1       -0.1467
      9 C         139.9109  142.6816  170.5012 C.2     1  UNL1        0.1197
     10 C         140.4760  141.7664  169.4557 C.2     1  UNL1        0.0226
     11 C         140.2950  141.7093  167.9678 C.3     1  UNL1        0.0588
     12 C         140.5237  139.2932  165.0083 C.3     1  UNL1        0.0977
     13 C         139.9350  138.0313  164.4505 C.3     1  UNL1        0.0233
     14 C         141.0176  137.3019  163.7117 C.3     1  UNL1        0.0189
     15 C         142.2754  138.1129  163.8130 C.3     1  UNL1        0.0689
     16 N         141.9702  139.3436  164.6143 N.3     1  UNL1       -0.2938
     17 H         142.1469  140.1757  164.0515 H       1  UNL1        0.1235
     18 C         139.1399  139.5164  165.5423 C.3     1  UNL1        0.0219
     19 C         137.5284  138.4440  167.2753 C.3     1  UNL1        0.0001
     20 C         138.3164  138.3501  166.0024 C.3     1  UNL1        0.0018
@<TRIPOS>BOND
     1    19    20    1
     2    20    18    1
     3    18    12    1
     4    12     1    1
     5     1     2    2
     6     1     3    1
     7     3     4    2
     8     4     5    1
     9     5     6    2
    10     6     7    1
    11     7     8    2
    12     8     9    1
    13     9    10    2
    14    10    11    1
    15    12    13    1
    16    13    14    1
    17    14    15    1
    18    15    16    1
    19    16    12    1
    20    11     3    1
    21    10     6    1
    22    16    17    1
@<TRIPOS>MOLECULE
*****
 20 22 0 0 0
SMALL
GASTEIGER

@<TRIPOS>ATOM
      1 C         142.2796  142.1742  165.8041 C.2     1  UNL1        0.1818
      2 O         141.1163  142.6657  164.9948 O.2     1  UNL1       -0.2903
      3 C         142.2202  142.2118  167.3025 C.2     1  UNL1        0.0183
      4 C         143.4884  142.2435  168.1028 C.2     1  UNL1        0.0005
      5 C         143.4290  142.2811  169.6012 C.2     1  UNL1        0.0204
      6 C         142.1013  142.2870  170.2992 C.2     1  UNL1        0.1007
      7 N         141.7316  142.3206  171.7525 N.2     1  UNL1       -0.1482
      8 N         140.2348  142.3097  171.8504 N.2     1  UNL1       -0.1467
      9 C         139.6795  142.2693  170.4575 C.2     1  UNL1        0.1197
     10 C         140.8330  142.2552  169.4988 C.2     1  UNL1        0.0226
     11 C         140.8925  142.2176  168.0005 C.3     1  UNL1        0.0588
     12 C         143.5023  141.6450  165.1151 C.3     1  UNL1        0.0977
     13 C         144.8018  141.4188  164.4007 C.3     1  UNL1        0.0233
     14 C         144.9827  139.9402  164.2246 C.3     1  UNL1        0.0189
     15 C         143.7951  139.2526  164.8302 C.3     1  UNL1        0.0689
     16 N         142.8801  140.3062  165.3805 N.3     1  UNL1       -0.2938
     17 H         142.7624  140.1721  166.3848 H       1  UNL1        0.1235
     18 C         143.8689  143.0944  164.9937 C.3     1  UNL1        0.0219
     19 C         143.6646  144.8574  163.0963 C.3     1  UNL1        0.0001
     20 C         144.3289  143.6439  163.6760 C.3     1  UNL1        0.0018
@<TRIPOS>BOND
     1    19    20    1
     2    20    18    1
     3    18    12    1
     4    12     1    1
     5     1     2    2
     6     1     3    1
     7     3     4    2
     8     4     5    1
     9     5     6    2
    10     6     7    1
    11     7     8    2
    12     8     9    1
    13     9    10    2
    14    10    11    1
    15    12    13    1
    16    13    14    1
    17    14    15    1
    18    15    16    1
    19    16    12    1
    20    11     3    1
    21    10     6    1
    22    16    17    1
@<TRIPOS>MOLECULE
*****
 20 22 0 0 0
SMALL
GASTEIGER

@<TRIPOS>ATOM
      1 C         140.4388  141.0410  165.5018 C.2     1  UNL1        0.1818
      2 O         141.2358  141.8341  164.5091 O.2     1  UNL1       -0.2903
      3 C         140.4321  141.4394  166.9480 C.2     1  UNL1        0.0183
      4 C         140.3846  142.8901  167.3261 C.2     1  UNL1        0.0005
      5 C         140.3780  143.2885  168.7723 C.2     1  UNL1        0.0204
      6 C         140.4188  142.2360  169.8402 C.2     1  UNL1        0.1007
      7 N         140.4229  142.3252  171.3376 N.2     1  UNL1       -0.1482
      8 N         140.4729  140.9294  171.8848 N.2     1  UNL1       -0.1467
      9 C         140.4997  139.9777  170.7257 C.2     1  UNL1        0.1197
     10 C         140.4663  140.7852  169.4621 C.2     1  UNL1        0.0226
     11 C         140.4729  140.3869  168.0159 C.3     1  UNL1        0.0588
     12 C         139.6483  139.8496  165.0485 C.3     1  UNL1        0.0977
     13 C         138.6134  138.8533  164.6163 C.3     1  UNL1        0.0233
     14 C         139.3082  137.5524  164.3429 C.3     1  UNL1        0.0189
     15 C         140.7723  137.7445  164.6061 C.3     1  UNL1        0.0689
     16 N         140.9826  139.1642  165.0421 N.3     1  UNL1       -0.2938
     17 H         141.6112  139.6364  164.3923 H       1  UNL1        0.1235
     18 C         138.4793  140.7840  165.1496 C.3     1  UNL1        0.0219
     19 C         137.7271  142.7228  163.5923 C.3     1  UNL1        0.0001
     20 C         137.7875  141.2571  163.9056 C.3     1  UNL1        0.0018
@<TRIPOS>BOND
     1    19    20    1
     2    20    18    1
     3    18    12    1
     4    12     1    1
     5     1     2    2
     6     1     3    1
     7     3     4    2
     8     4     5    1
     9     5     6    2
    10     6     7    1
    11     7     8    2
    12     8     9    1
    13     9    10    2
    14    10    11    1
    15    12    13    1
    16    13    14    1
    17    14    15    1
    18    15    16    1
    19    16    12    1
    20    11     3    1
    21    10     6    1
    22    16    17    1
@<TRIPOS>MOLECULE
*****
 20 22 0 0 0
SMALL
GASTEIGER

@<TRIPOS>ATOM
      1 C         138.6608  139.5440  166.3591 C.2     1  UNL1        0.1818
      2 O         137.5329  138.6983  166.8712 O.2     1  UNL1       -0.2903
      3 C         139.4118  140.4412  167.2978 C.2     1  UNL1        0.0183
      4 C         140.0172  141.7171  166.7925 C.2     1  UNL1        0.0005
      5 C         140.7682  142.6143  167.7313 C.2     1  UNL1        0.0204
      6 C         140.9136  142.2354  169.1753 C.2     1  UNL1        0.1007
      7 N         141.5930  142.9143  170.3275 N.2     1  UNL1       -0.1482
      8 N         141.4073  142.0579  171.5449 N.2     1  UNL1       -0.1467
      9 C         140.6133  140.8497  171.1451 C.2     1  UNL1        0.1197
     10 C         140.3082  140.9594  169.6806 C.2     1  UNL1        0.0226
     11 C         139.5572  140.0623  168.7419 C.3     1  UNL1        0.0588
     12 C         139.0378  139.4926  164.9082 C.3     1  UNL1        0.0977
     13 C         139.6445  139.2527  163.5574 C.3     1  UNL1        0.0233
     14 C         138.8422  140.0171  162.5466 C.3     1  UNL1        0.0189
     15 C         137.7397  140.7294  163.2725 C.3     1  UNL1        0.0689
     16 N         137.8605  140.4053  164.7320 N.3     1  UNL1       -0.2938
     17 H         137.0115  139.9413  165.0550 H       1  UNL1        0.1235
     18 C         140.1363  138.5907  165.3876 C.3     1  UNL1        0.0219
     19 C         142.7020  138.5414  165.7940 C.3     1  UNL1        0.0001
     20 C         141.5357  138.7783  164.8810 C.3     1  UNL1        0.0018
@<TRIPOS>BOND
     1    19    20    1
     2    20    18    1
     3    18    12    1
     4    12     1    1
     5     1     2    2
     6     1     3    1
     7     3     4    2
     8     4     5    1
     9     5     6    2
    10     6     7    1
    11     7     8    2
    12     8     9    1
    13     9    10    2
    14    10    11    1
    15    12    13    1
    16    13    14    1
    17    14    15    1
    18    15    16    1
    19    16    12    1
    20    11     3    1
    21    10     6    1
    22    16    17    1
@<TRIPOS>MOLECULE
*****
 20 22 0 0 0
SMALL
GASTEIGER

@<TRIPOS>ATOM
      1 C         141.2860  141.8313  165.5583 C.2     1  UNL1        0.1818
      2 O         142.3145  141.1750  164.6858 O.2     1  UNL1       -0.2903
      3 C         141.5250  141.9586  167.0337 C.2     1  UNL1        0.0183
      4 C         142.9231  142.1027  167.5574 C.2     1  UNL1        0.0005
      5 C         143.1621  142.2300  169.0328 C.2     1  UNL1        0.0204
      6 C         142.0028  142.2131  169.9844 C.2     1  UNL1        0.1007
      7 N         141.9295  142.3183  171.4790 N.2     1  UNL1       -0.1482
      8 N         140.4859  142.2392  171.8789 N.2     1  UNL1       -0.1467
      9 C         139.6671  142.0851  170.6316 C.2     1  UNL1        0.1197
     10 C         140.6045  142.0690  169.4607 C.2     1  UNL1        0.0226
     11 C         140.3657  141.9418  167.9854 C.3     1  UNL1        0.0588
     12 C         140.0185  142.3605  164.9555 C.3     1  UNL1        0.0977
     13 C         138.8969  143.1665  164.3702 C.3     1  UNL1        0.0233
     14 C         137.7702  142.2294  164.0508 C.3     1  UNL1        0.0189
     15 C         138.1953  140.8442  164.4386 C.3     1  UNL1        0.0689
     16 N         139.5848  140.9251  164.9977 N.3     1  UNL1       -0.2938
     17 H         140.2177  140.3556  164.4361 H       1  UNL1        0.1235
     18 C         140.7171  143.6852  165.0393 C.3     1  UNL1        0.0219
     19 C         142.3888  145.2173  163.7712 C.3     1  UNL1        0.0001
     20 C         141.1357  144.3930  163.7848 C.3     1  UNL1        0.0018
@<TRIPOS>BOND
     1    19    20    1
     2    20    18    1
     3    18    12    1
     4    12     1    1
     5     1     2    2
     6     1     3    1
     7     3     4    2
     8     4     5    1
     9     5     6    2
    10     6     7    1
    11     7     8    2
    12     8     9    1
    13     9    10    2
    14    10    11    1
    15    12    13    1
    16    13    14    1
    17    14    15    1
    18    15    16    1
    19    16    12    1
    20    11     3    1
    21    10     6    1
    22    16    17    1
@<TRIPOS>MOLECULE
*****
 20 22 0 0 0
SMALL
GASTEIGER

@<TRIPOS>ATOM
      1 C         141.8951  140.7247  165.7147 C.2     1  UNL1        0.1818
      2 O         141.8282  141.7967  164.6679 O.2     1  UNL1       -0.2903
      3 C         141.9091  141.0954  167.1682 C.2     1  UNL1        0.0183
      4 C         142.8661  142.1369  167.6673 C.2     1  UNL1        0.0005
      5 C         142.8801  142.5076  169.1208 C.2     1  UNL1        0.0204
      6 C         141.9371  141.8367  170.0750 C.2     1  UNL1        0.1007
      7 N         141.7227  141.9937  171.5513 N.2     1  UNL1       -0.1482
      8 N         140.6332  141.0491  171.9644 N.2     1  UNL1       -0.1467
      9 C         140.1742  140.3084  170.7435 C.2     1  UNL1        0.1197
     10 C         140.9801  140.7951  169.5758 C.2     1  UNL1        0.0226
     11 C         140.9661  140.4244  168.1224 C.3     1  UNL1        0.0588
     12 C         141.9480  139.2818  165.3083 C.3     1  UNL1        0.0977
     13 C         142.3061  137.8651  164.9689 C.3     1  UNL1        0.0233
     14 C         141.0565  137.1653  164.5231 C.3     1  UNL1        0.0189
     15 C         139.9262  138.1493  164.5869 C.3     1  UNL1        0.0689
     16 N         140.4771  139.4574  165.0721 N.3     1  UNL1       -0.2938
     17 H         140.0166  139.7257  165.9418 H       1  UNL1        0.1235
     18 C         143.4078  139.4078  165.6293 C.3     1  UNL1        0.0219
     19 C         145.2273  140.4584  164.1011 C.3     1  UNL1        0.0001
     20 C         144.4301  139.2663  164.5408 C.3     1  UNL1        0.0018
@<TRIPOS>BOND
     1    19    20    1
     2    20    18    1
     3    18    12    1
     4    12     1    1
     5     1     2    2
     6     1     3    1
     7     3     4    2
     8     4     5    1
     9     5     6    2
    10     6     7    1
    11     7     8    2
    12     8     9    1
    13     9    10    2
    14    10    11    1
    15    12    13    1
    16    13    14    1
    17    14    15    1
    18    15    16    1
    19    16    12    1
    20    11     3    1
    21    10     6    1
    22    16    17    1
@<TRIPOS>MOLECULE
*****
 20 22 0 0 0
SMALL
GASTEIGER

@<TRIPOS>ATOM
      1 C         140.7397  140.9148  165.0364 C.2     1  UNL1        0.1818
      2 O         141.0506  142.1252  164.2070 O.2     1  UNL1       -0.2903
      3 C         140.4119  141.0671  166.4922 C.2     1  UNL1        0.0183
      4 C         139.7781  139.9325  167.2410 C.2     1  UNL1        0.0005
      5 C         139.4503  140.0848  168.6969 C.2     1  UNL1        0.0204
      6 C         139.7564  141.3719  169.4038 C.2     1  UNL1        0.1007
      7 N         139.5486  141.8116  170.8228 N.2     1  UNL1       -0.1482
      8 N         140.0540  143.2180  170.9509 N.2     1  UNL1       -0.1467
      9 C         140.5741  143.6476  169.6111 C.2     1  UNL1        0.1197
     10 C         140.3902  142.5065  168.6550 C.2     1  UNL1        0.0226
     11 C         140.7180  142.3542  167.1992 C.3     1  UNL1        0.0588
     12 C         140.7567  139.5519  164.4101 C.3     1  UNL1        0.0977
     13 C         141.0765  138.1917  163.8644 C.3     1  UNL1        0.0233
     14 C         139.8213  137.6229  163.2723 C.3     1  UNL1        0.0189
     15 C         138.7257  138.6315  163.4519 C.3     1  UNL1        0.0689
     16 N         139.3037  139.8237  164.1551 N.3     1  UNL1       -0.2938
     17 H         138.8188  139.9723  165.0400 H       1  UNL1        0.1235
     18 C         142.2061  139.5651  164.7960 C.3     1  UNL1        0.0219
     19 C         143.2806  138.6159  166.9628 C.3     1  UNL1        0.0001
     20 C         142.7893  138.4134  165.5600 C.3     1  UNL1        0.0018
@<TRIPOS>BOND
     1    19    20    1
     2    20    18    1
     3    18    12    1
     4    12     1    1
     5     1     2    2
     6     1     3    1
     7     3     4    2
     8     4     5    1
     9     5     6    2
    10     6     7    1
    11     7     8    2
    12     8     9    1
    13     9    10    2
    14    10    11    1
    15    12    13    1
    16    13    14    1
    17    14    15    1
    18    15    16    1
    19    16    12    1
    20    11     3    1
    21    10     6    1
    22    16    17    1
