@<TRIPOS>MOLECULE
*****
 34 37 0 0 0
SMALL
GASTEIGER

@<TRIPOS>ATOM
      1 C         142.7887  142.3613  162.0419 C.ar    1  UNL1        0.0483
      2 C         143.8623  141.3138  162.0403 C.ar    1  UNL1        0.0176
      3 C         144.0622  140.4428  163.2451 C.ar    1  UNL1        0.0383
      4 C         143.1885  140.6194  164.4515 C.ar    1  UNL1        0.1434
      5 C         142.1149  141.6669  164.4531 C.ar    1  UNL1        0.0888
      6 C         141.9150  142.5379  163.2483 C.ar    1  UNL1        0.0221
      7 N         142.1890  144.9742  158.4276 N.3     1  UNL1       -0.2676
      8 C         141.4176  145.2450  159.6851 C.3     1  UNL1        0.0939
      9 C         141.6175  144.3740  160.8899 C.3     1  UNL1        0.1081
     10 N         142.5888  143.2323  160.8371 N.pl3   1  UNL1       -0.3046
     11 C         143.3603  142.9615  159.5796 C.3     1  UNL1        0.1081
     12 C         143.1604  143.8324  158.3748 C.3     1  UNL1        0.0939
     13 C         141.9891  145.8451  157.2228 C.3     1  UNL1        0.1046
     14 C         140.6357  145.9416  156.5834 C.3     1  UNL1        0.1595
     15 C         138.8688  147.8019  156.1740 C.3     1  UNL1        0.1742
     16 O         139.6218  146.9101  157.1163 O.3     1  UNL1       -0.3496
     17 C         141.2412  141.8435  165.6595 C.2     1  UNL1        0.2525
     18 O         139.8111  142.2650  165.4945 O.2     1  UNL1       -0.2697
     19 N         141.7975  141.5987  167.0308 N.am    1  UNL1       -0.2790
     20 H         142.7361  141.3221  167.1391 H       1  UNL1        0.1552
     21 C         140.9237  141.7753  168.2372 C.ar    1  UNL1        0.0734
     22 C         140.1534  140.6095  168.7824 C.ar    1  UNL1        0.0388
     23 C         139.2796  140.7860  169.9888 C.ar    1  UNL1        0.1235
     24 N         139.1763  142.1284  170.6500 N.ar    1  UNL1       -0.1463
     25 N         139.9467  143.2943  170.1048 N.ar    1  UNL1       -0.1450
     26 C         140.8204  143.1178  168.8984 C.ar    1  UNL1        0.1368
     27 O         143.3884  139.7485  165.6562 O.3     1  UNL1       -0.4705
     28 C         142.6823  138.4286  165.7530 C.3     1  UNL1        0.2320
     29 C         141.4135  138.1989  164.9868 C.ar    1  UNL1        0.0212
     30 C         140.0877  138.4806  165.6296 C.ar    1  UNL1       -0.0007
     31 C         138.8188  138.2508  164.8633 C.ar    1  UNL1       -0.0002
     32 C         138.8757  137.7394  163.4543 C.ar    1  UNL1       -0.0000
     33 C         140.2014  137.4577  162.8116 C.ar    1  UNL1       -0.0002
     34 C         141.4703  137.6875  163.5778 C.ar    1  UNL1       -0.0007
@<TRIPOS>BOND
     1    15    16    1
     2    16    14    1
     3    14    13    1
     4    13     7    1
     5     7     8    1
     6     8     9    1
     7     9    10    1
     8    10     1    1
     9     1     2   ar
    10     2     3   ar
    11     3     4   ar
    12     4    27    1
    13    27    28    1
    14    28    29    1
    15    29    30   ar
    16    30    31   ar
    17    31    32   ar
    18    32    33   ar
    19    33    34   ar
    20     4     5   ar
    21     5    17    1
    22    17    18    2
    23    17    19   am
    24    19    21    1
    25    21    22   ar
    26    22    23   ar
    27    23    24   ar
    28    24    25   ar
    29    25    26   ar
    30     5     6   ar
    31    10    11    1
    32    11    12    1
    33    12     7    1
    34     6     1   ar
    35    34    29   ar
    36    26    21   ar
    37    19    20    1
@<TRIPOS>MOLECULE
*****
 34 37 0 0 0
SMALL
GASTEIGER

@<TRIPOS>ATOM
      1 C         139.8299  139.4323  160.7329 C.ar    1  UNL1        0.0483
      2 C         138.7104  140.4170  160.5687 C.ar    1  UNL1        0.0176
      3 C         138.0737  141.0371  161.7771 C.ar    1  UNL1        0.0383
      4 C         138.5565  140.6725  163.1496 C.ar    1  UNL1        0.1434
      5 C         139.6760  139.6877  163.3138 C.ar    1  UNL1        0.0888
      6 C         140.3127  139.0677  162.1055 C.ar    1  UNL1        0.0221
      7 N         141.7400  137.5720  157.1079 N.3     1  UNL1       -0.2676
      8 C         142.5510  137.8012  158.3487 C.3     1  UNL1        0.0939
      9 C         141.9143  138.4213  159.5570 C.3     1  UNL1        0.1081
     10 N         140.4666  138.8122  159.5246 N.pl3   1  UNL1       -0.3046
     11 C         139.6555  138.5830  158.2838 C.3     1  UNL1        0.1081
     12 C         140.2922  137.9629  157.0755 C.3     1  UNL1        0.0939
     13 C         142.3767  136.9519  155.8995 C.3     1  UNL1        0.1046
     14 C         143.7916  136.4588  155.9671 C.3     1  UNL1        0.1595
     15 C         144.6321  138.7366  155.0424 C.3     1  UNL1        0.1742
     16 O         144.9213  137.3654  155.5775 O.3     1  UNL1       -0.3496
     17 C         140.1588  139.3231  164.6864 C.2     1  UNL1        0.2525
     18 O         140.1381  137.8912  165.1329 O.2     1  UNL1       -0.2697
     19 N         140.6624  140.3902  165.6124 N.am    1  UNL1       -0.2790
     20 H         140.6760  141.3300  165.3194 H       1  UNL1        0.1552
     21 C         141.1452  140.0255  166.9850 C.ar    1  UNL1        0.0734
     22 C         140.2681  140.2676  168.1775 C.ar    1  UNL1        0.0388
     23 C         140.7509  139.9029  169.5501 C.ar    1  UNL1        0.1235
     24 N         142.1108  139.2962  169.7301 N.ar    1  UNL1       -0.1463
     25 N         142.9880  139.0542  168.5376 N.ar    1  UNL1       -0.1450
     26 C         142.5052  139.4188  167.1651 C.ar    1  UNL1        0.1368
     27 O         137.9198  141.2925  164.3580 O.3     1  UNL1       -0.4705
     28 C         137.7692  142.7824  164.4451 C.3     1  UNL1        0.2320
     29 C         138.8699  143.6773  163.9578 C.ar    1  UNL1        0.0212
     30 C         140.2066  143.6609  164.6383 C.ar    1  UNL1       -0.0007
     31 C         141.3074  144.5558  164.1510 C.ar    1  UNL1       -0.0002
     32 C         141.0715  145.4670  162.9830 C.ar    1  UNL1       -0.0000
     33 C         139.7348  145.4834  162.3025 C.ar    1  UNL1       -0.0002
     34 C         138.6341  144.5885  162.7899 C.ar    1  UNL1       -0.0007
@<TRIPOS>BOND
     1    15    16    1
     2    16    14    1
     3    14    13    1
     4    13     7    1
     5     7     8    1
     6     8     9    1
     7     9    10    1
     8    10     1    1
     9     1     2   ar
    10     2     3   ar
    11     3     4   ar
    12     4    27    1
    13    27    28    1
    14    28    29    1
    15    29    30   ar
    16    30    31   ar
    17    31    32   ar
    18    32    33   ar
    19    33    34   ar
    20     4     5   ar
    21     5    17    1
    22    17    18    2
    23    17    19   am
    24    19    21    1
    25    21    22   ar
    26    22    23   ar
    27    23    24   ar
    28    24    25   ar
    29    25    26   ar
    30     5     6   ar
    31    10    11    1
    32    11    12    1
    33    12     7    1
    34     6     1   ar
    35    34    29   ar
    36    26    21   ar
    37    19    20    1
@<TRIPOS>MOLECULE
*****
 34 37 0 0 0
SMALL
GASTEIGER

@<TRIPOS>ATOM
      1 C         139.3410  142.9973  161.7157 C.ar    1  UNL1        0.0483
      2 C         138.1171  142.1315  161.7637 C.ar    1  UNL1        0.0176
      3 C         137.7259  141.4561  163.0446 C.ar    1  UNL1        0.0383
      4 C         138.5586  141.6466  164.2776 C.ar    1  UNL1        0.1434
      5 C         139.7825  142.5124  164.2297 C.ar    1  UNL1        0.0888
      6 C         140.1737  143.1878  162.9487 C.ar    1  UNL1        0.0221
      7 N         140.5147  145.0234  157.8729 N.3     1  UNL1       -0.2676
      8 C         139.6189  143.8207  157.8434 C.3     1  UNL1        0.0939
      9 C         139.2277  143.1453  159.1244 C.3     1  UNL1        0.1081
     10 N         139.7322  143.6727  160.4348 N.pl3   1  UNL1       -0.3046
     11 C         140.6280  144.8755  160.4642 C.3     1  UNL1        0.1081
     12 C         141.0192  145.5509  159.1833 C.3     1  UNL1        0.0939
     13 C         140.9059  145.6988  156.5919 C.3     1  UNL1        0.1046
     14 C         139.8478  146.2209  155.6658 C.3     1  UNL1        0.1595
     15 C         139.5754  148.5670  154.5833 C.3     1  UNL1        0.1742
     16 O         140.2086  147.2072  154.5948 O.3     1  UNL1       -0.3496
     17 C         140.6153  142.7029  165.4627 C.2     1  UNL1        0.2525
     18 O         142.0401  143.1561  165.3427 O.2     1  UNL1       -0.2697
     19 N         140.0232  142.4403  166.8156 N.am    1  UNL1       -0.2790
     20 H         139.0880  142.1428  166.8943 H       1  UNL1        0.1552
     21 C         140.8559  142.6308  168.0486 C.ar    1  UNL1        0.0734
     22 C         142.1594  141.9028  168.1931 C.ar    1  UNL1        0.0388
     23 C         142.9922  142.0932  169.4260 C.ar    1  UNL1        0.1235
     24 N         142.5214  143.0117  170.5145 N.ar    1  UNL1       -0.1463
     25 N         141.2179  143.7397  170.3700 N.ar    1  UNL1       -0.1450
     26 C         140.3852  143.5492  169.1371 C.ar    1  UNL1        0.1368
     27 O         138.1674  140.9712  165.5586 O.3     1  UNL1       -0.4705
     28 C         138.3646  139.4928  165.7176 C.3     1  UNL1        0.2320
     29 C         139.5575  138.8247  165.1007 C.ar    1  UNL1        0.0212
     30 C         139.3901  137.9691  163.8800 C.ar    1  UNL1       -0.0007
     31 C         140.5830  137.3009  163.2631 C.ar    1  UNL1       -0.0002
     32 C         141.9433  137.4883  163.8670 C.ar    1  UNL1       -0.0000
     33 C         142.1106  138.3438  165.0877 C.ar    1  UNL1       -0.0002
     34 C         140.9177  139.0120  165.7045 C.ar    1  UNL1       -0.0007
@<TRIPOS>BOND
     1    15    16    1
     2    16    14    1
     3    14    13    1
     4    13     7    1
     5     7     8    1
     6     8     9    1
     7     9    10    1
     8    10     1    1
     9     1     2   ar
    10     2     3   ar
    11     3     4   ar
    12     4    27    1
    13    27    28    1
    14    28    29    1
    15    29    30   ar
    16    30    31   ar
    17    31    32   ar
    18    32    33   ar
    19    33    34   ar
    20     4     5   ar
    21     5    17    1
    22    17    18    2
    23    17    19   am
    24    19    21    1
    25    21    22   ar
    26    22    23   ar
    27    23    24   ar
    28    24    25   ar
    29    25    26   ar
    30     5     6   ar
    31    10    11    1
    32    11    12    1
    33    12     7    1
    34     6     1   ar
    35    34    29   ar
    36    26    21   ar
    37    19    20    1
@<TRIPOS>MOLECULE
*****
 34 37 0 0 0
SMALL
GASTEIGER

@<TRIPOS>ATOM
      1 C         139.7101  138.8415  165.2656 C.ar    1  UNL1        0.0483
      2 C         140.3425  137.5385  164.8757 C.ar    1  UNL1        0.0176
      3 C         140.9953  137.3937  163.5330 C.ar    1  UNL1        0.0383
      4 C         141.0156  138.5520  162.5801 C.ar    1  UNL1        0.1434
      5 C         140.3831  139.8550  162.9700 C.ar    1  UNL1        0.0888
      6 C         139.7304  139.9997  164.3128 C.ar    1  UNL1        0.0221
      7 N         137.7518  139.2757  169.2939 N.3     1  UNL1       -0.2676
      8 C         139.0250  140.0107  168.9957 C.3     1  UNL1        0.0939
      9 C         139.6777  139.8659  167.6530 C.3     1  UNL1        0.1081
     10 N         139.0573  138.9862  166.6084 N.pl3   1  UNL1       -0.3046
     11 C         137.7842  138.2513  166.9065 C.3     1  UNL1        0.1081
     12 C         137.1315  138.3960  168.2493 C.3     1  UNL1        0.0939
     13 C         137.0991  139.4205  170.6366 C.3     1  UNL1        0.1046
     14 C         136.0703  138.4238  171.0818 C.3     1  UNL1        0.1595
     15 C         135.6729  137.1358  173.3029 C.3     1  UNL1        0.1742
     16 O         135.6105  138.4073  172.5095 O.3     1  UNL1       -0.3496
     17 C         140.4034  141.0134  162.0172 C.2     1  UNL1        0.2525
     18 O         139.4821  141.0270  160.8335 O.2     1  UNL1       -0.2697
     19 N         141.3449  142.1580  162.2480 N.am    1  UNL1       -0.2790
     20 H         141.9496  142.1490  163.0249 H       1  UNL1        0.1552
     21 C         141.3652  143.3163  161.2952 C.ar    1  UNL1        0.0734
     22 C         140.3830  144.4383  161.4576 C.ar    1  UNL1        0.0388
     23 C         140.4032  145.5966  160.5048 C.ar    1  UNL1        0.1235
     24 N         141.4056  145.6330  159.3896 N.ar    1  UNL1       -0.1463
     25 N         142.3879  144.5110  159.2272 N.ar    1  UNL1       -0.1450
     26 C         142.3676  143.3527  160.1800 C.ar    1  UNL1        0.1368
     27 O         141.6683  138.4072  161.2374 O.3     1  UNL1       -0.4705
     28 C         143.1618  138.4792  161.1178 C.3     1  UNL1        0.2320
     29 C         143.9407  139.4107  161.9986 C.ar    1  UNL1        0.0212
     30 C         144.2898  139.0022  163.3991 C.ar    1  UNL1       -0.0007
     31 C         145.0687  139.9336  164.2799 C.ar    1  UNL1       -0.0002
     32 C         145.4985  141.2735  163.7601 C.ar    1  UNL1       -0.0000
     33 C         145.1493  141.6819  162.3597 C.ar    1  UNL1       -0.0002
     34 C         144.3704  140.7505  161.4789 C.ar    1  UNL1       -0.0007
@<TRIPOS>BOND
     1    15    16    1
     2    16    14    1
     3    14    13    1
     4    13     7    1
     5     7     8    1
     6     8     9    1
     7     9    10    1
     8    10     1    1
     9     1     2   ar
    10     2     3   ar
    11     3     4   ar
    12     4    27    1
    13    27    28    1
    14    28    29    1
    15    29    30   ar
    16    30    31   ar
    17    31    32   ar
    18    32    33   ar
    19    33    34   ar
    20     4     5   ar
    21     5    17    1
    22    17    18    2
    23    17    19   am
    24    19    21    1
    25    21    22   ar
    26    22    23   ar
    27    23    24   ar
    28    24    25   ar
    29    25    26   ar
    30     5     6   ar
    31    10    11    1
    32    11    12    1
    33    12     7    1
    34     6     1   ar
    35    34    29   ar
    36    26    21   ar
    37    19    20    1
@<TRIPOS>MOLECULE
*****
 34 37 0 0 0
SMALL
GASTEIGER

@<TRIPOS>ATOM
      1 C         143.9860  141.4542  162.1346 C.ar    1  UNL1        0.0483
      2 C         144.8391  142.3952  162.9324 C.ar    1  UNL1        0.0176
      3 C         144.6939  142.4579  164.4240 C.ar    1  UNL1        0.0383
      4 C         143.6954  141.5795  165.1179 C.ar    1  UNL1        0.1434
      5 C         142.8423  140.6385  164.3201 C.ar    1  UNL1        0.0888
      6 C         142.9875  140.5758  162.8285 C.ar    1  UNL1        0.0221
      7 N         144.4218  141.2661  157.6597 N.3     1  UNL1       -0.2676
      8 C         143.8705  140.0899  158.4097 C.3     1  UNL1        0.0939
      9 C         143.7252  140.1526  159.9013 C.3     1  UNL1        0.1081
     10 N         144.1313  141.3915  160.6430 N.pl3   1  UNL1       -0.3046
     11 C         144.6826  142.5677  159.8931 C.3     1  UNL1        0.1081
     12 C         144.8279  142.5050  158.4014 C.3     1  UNL1        0.0939
     13 C         144.5671  141.2034  156.1681 C.3     1  UNL1        0.1046
     14 C         145.7227  140.4675  155.5574 C.3     1  UNL1        0.1595
     15 C         147.0973  142.6712  155.4915 C.3     1  UNL1        0.1742
     16 O         147.0065  141.1898  155.2741 O.3     1  UNL1       -0.3496
     17 C         141.8437  139.7600  165.0140 C.2     1  UNL1        0.2525
     18 O         142.3065  138.5479  165.7668 O.2     1  UNL1       -0.2697
     19 N         140.3825  140.0937  164.9551 N.am    1  UNL1       -0.2790
     20 H         140.0788  140.8892  164.4610 H       1  UNL1        0.1552
     21 C         139.3840  139.2152  165.6489 C.ar    1  UNL1        0.0734
     22 C         138.7247  139.6822  166.9127 C.ar    1  UNL1        0.0388
     23 C         137.7262  138.8039  167.6066 C.ar    1  UNL1        0.1235
     24 N         137.3871  137.4585  167.0367 N.ar    1  UNL1       -0.1463
     25 N         138.0464  136.9914  165.7729 N.ar    1  UNL1       -0.1450
     26 C         139.0449  137.8698  165.0790 C.ar    1  UNL1        0.1368
     27 O         143.5501  141.6422  166.6095 O.3     1  UNL1       -0.4705
     28 C         142.3680  142.3353  167.2195 C.3     1  UNL1        0.2320
     29 C         141.5875  141.6661  168.3117 C.ar    1  UNL1        0.0212
     30 C         141.9722  140.2921  168.7748 C.ar    1  UNL1       -0.0007
     31 C         141.1918  139.6229  169.8670 C.ar    1  UNL1       -0.0002
     32 C         140.0266  140.3276  170.4962 C.ar    1  UNL1       -0.0000
     33 C         139.6419  141.7015  170.0331 C.ar    1  UNL1       -0.0002
     34 C         140.4224  142.3707  168.9409 C.ar    1  UNL1       -0.0007
@<TRIPOS>BOND
     1    15    16    1
     2    16    14    1
     3    14    13    1
     4    13     7    1
     5     7     8    1
     6     8     9    1
     7     9    10    1
     8    10     1    1
     9     1     2   ar
    10     2     3   ar
    11     3     4   ar
    12     4    27    1
    13    27    28    1
    14    28    29    1
    15    29    30   ar
    16    30    31   ar
    17    31    32   ar
    18    32    33   ar
    19    33    34   ar
    20     4     5   ar
    21     5    17    1
    22    17    18    2
    23    17    19   am
    24    19    21    1
    25    21    22   ar
    26    22    23   ar
    27    23    24   ar
    28    24    25   ar
    29    25    26   ar
    30     5     6   ar
    31    10    11    1
    32    11    12    1
    33    12     7    1
    34     6     1   ar
    35    34    29   ar
    36    26    21   ar
    37    19    20    1
@<TRIPOS>MOLECULE
*****
 34 37 0 0 0
SMALL
GASTEIGER

@<TRIPOS>ATOM
      1 C         143.4593  140.9774  160.5264 C.ar    1  UNL1        0.0483
      2 C         144.1785  142.2835  160.3622 C.ar    1  UNL1        0.0176
      3 C         144.2816  143.2335  161.5184 C.ar    1  UNL1        0.0383
      4 C         143.6654  142.8775  162.8389 C.ar    1  UNL1        0.1434
      5 C         142.9462  141.5715  163.0031 C.ar    1  UNL1        0.0888
      6 C         142.8432  140.6214  161.8468 C.ar    1  UNL1        0.0221
      7 N         143.1503  138.1274  157.0578 N.3     1  UNL1       -0.2676
      8 C         143.6685  139.5183  156.8417 C.3     1  UNL1        0.0939
      9 C         143.7715  140.4683  157.9979 C.3     1  UNL1        0.1081
     10 N         143.3563  140.0274  159.3702 N.pl3   1  UNL1       -0.3046
     11 C         142.8381  138.6365  159.5863 C.3     1  UNL1        0.1081
     12 C         142.7351  137.6865  158.4300 C.3     1  UNL1        0.0939
     13 C         143.0472  137.1773  155.9016 C.3     1  UNL1        0.1046
     14 C         144.0889  136.1155  155.7082 C.3     1  UNL1        0.1595
     15 C         143.6801  134.0851  157.2769 C.3     1  UNL1        0.1742
     16 O         143.7314  134.6710  155.8969 O.3     1  UNL1       -0.3496
     17 C         142.3300  141.2154  164.3235 C.2     1  UNL1        0.2525
     18 O         140.9916  140.5396  164.3687 O.2     1  UNL1       -0.2697
     19 N         143.0522  141.5351  165.5987 N.am    1  UNL1       -0.2790
     20 H         143.9306  141.9786  165.5691 H       1  UNL1        0.1552
     21 C         142.4360  141.1790  166.9192 C.ar    1  UNL1        0.0734
     22 C         142.7546  139.8632  167.5651 C.ar    1  UNL1        0.0388
     23 C         142.1385  139.5071  168.8855 C.ar    1  UNL1        0.1235
     24 N         141.2037  140.4669  169.5600 N.ar    1  UNL1       -0.1463
     25 N         140.8850  141.7827  168.9142 N.ar    1  UNL1       -0.1450
     26 C         141.5012  142.1388  167.5938 C.ar    1  UNL1        0.1368
     27 O         143.7684  143.8275  163.9951 O.3     1  UNL1       -0.4705
     28 C         142.8893  145.0417  164.0488 C.3     1  UNL1        0.2320
     29 C         141.4250  144.9214  163.7466 C.ar    1  UNL1        0.0212
     30 C         140.8780  145.4623  162.4588 C.ar    1  UNL1       -0.0007
     31 C         139.4137  145.3420  162.1567 C.ar    1  UNL1       -0.0002
     32 C         138.4964  144.6808  163.1423 C.ar    1  UNL1       -0.0000
     33 C         139.0434  144.1400  164.4300 C.ar    1  UNL1       -0.0002
     34 C         140.5077  144.2603  164.7322 C.ar    1  UNL1       -0.0007
@<TRIPOS>BOND
     1    15    16    1
     2    16    14    1
     3    14    13    1
     4    13     7    1
     5     7     8    1
     6     8     9    1
     7     9    10    1
     8    10     1    1
     9     1     2   ar
    10     2     3   ar
    11     3     4   ar
    12     4    27    1
    13    27    28    1
    14    28    29    1
    15    29    30   ar
    16    30    31   ar
    17    31    32   ar
    18    32    33   ar
    19    33    34   ar
    20     4     5   ar
    21     5    17    1
    22    17    18    2
    23    17    19   am
    24    19    21    1
    25    21    22   ar
    26    22    23   ar
    27    23    24   ar
    28    24    25   ar
    29    25    26   ar
    30     5     6   ar
    31    10    11    1
    32    11    12    1
    33    12     7    1
    34     6     1   ar
    35    34    29   ar
    36    26    21   ar
    37    19    20    1
@<TRIPOS>MOLECULE
*****
 34 37 0 0 0
SMALL
GASTEIGER

@<TRIPOS>ATOM
      1 C         139.8000  141.5191  160.7277 C.ar    1  UNL1        0.0483
      2 C         139.9093  140.1493  160.1263 C.ar    1  UNL1        0.0176
      3 C         139.8347  138.9361  161.0053 C.ar    1  UNL1        0.0383
      4 C         139.6508  139.0927  162.4857 C.ar    1  UNL1        0.1434
      5 C         139.5416  140.4625  163.0871 C.ar    1  UNL1        0.0888
      6 C         139.6162  141.6757  162.2081 C.ar    1  UNL1        0.0221
      7 N         140.0238  145.1586  158.0908 N.3     1  UNL1       -0.2676
      8 C         139.6367  143.8322  157.5071 C.3     1  UNL1        0.0939
      9 C         139.5621  142.6191  158.3861 C.3     1  UNL1        0.1081
     10 N         139.8746  142.7323  159.8487 N.pl3   1  UNL1       -0.3046
     11 C         140.2617  144.0587  160.4324 C.3     1  UNL1        0.1081
     12 C         140.3363  145.2719  159.5534 C.3     1  UNL1        0.0939
     13 C         140.0984  146.3718  157.2118 C.3     1  UNL1        0.1046
     14 C         139.7603  146.2640  155.7544 C.3     1  UNL1        0.1595
     15 C         137.5659  145.2143  154.8417 C.3     1  UNL1        0.1742
     16 O         138.3384  146.4153  155.3012 O.3     1  UNL1       -0.3496
     17 C         139.3577  140.6191  164.5676 C.2     1  UNL1        0.2525
     18 O         137.9923  140.4794  165.1727 O.2     1  UNL1       -0.2697
     19 N         140.5392  140.9154  165.4429 N.am    1  UNL1       -0.2790
     20 H         141.4354  141.0071  165.0457 H       1  UNL1        0.1552
     21 C         140.3553  141.0721  166.9233 C.ar    1  UNL1        0.0734
     22 C         140.5281  142.4181  167.5623 C.ar    1  UNL1        0.0388
     23 C         140.3443  142.5748  169.0427 C.ar    1  UNL1        0.1235
     24 N         139.9876  141.3854  169.8841 N.ar    1  UNL1       -0.1463
     25 N         139.8148  140.0393  169.2452 N.ar    1  UNL1       -0.1450
     26 C         139.9987  139.8827  167.7648 C.ar    1  UNL1        0.1368
     27 O         139.5762  137.8795  163.3647 O.3     1  UNL1       -0.4705
     28 C         140.8284  137.1369  163.7258 C.3     1  UNL1        0.2320
     29 C         142.0978  137.8909  163.9903 C.ar    1  UNL1        0.0212
     30 C         142.9584  138.3357  162.8450 C.ar    1  UNL1       -0.0007
     31 C         144.2278  139.0898  163.1094 C.ar    1  UNL1       -0.0002
     32 C         144.6366  139.3991  164.5192 C.ar    1  UNL1       -0.0000
     33 C         143.7760  138.9544  165.6644 C.ar    1  UNL1       -0.0002
     34 C         142.5066  138.2003  165.3999 C.ar    1  UNL1       -0.0007
@<TRIPOS>BOND
     1    15    16    1
     2    16    14    1
     3    14    13    1
     4    13     7    1
     5     7     8    1
     6     8     9    1
     7     9    10    1
     8    10     1    1
     9     1     2   ar
    10     2     3   ar
    11     3     4   ar
    12     4    27    1
    13    27    28    1
    14    28    29    1
    15    29    30   ar
    16    30    31   ar
    17    31    32   ar
    18    32    33   ar
    19    33    34   ar
    20     4     5   ar
    21     5    17    1
    22    17    18    2
    23    17    19   am
    24    19    21    1
    25    21    22   ar
    26    22    23   ar
    27    23    24   ar
    28    24    25   ar
    29    25    26   ar
    30     5     6   ar
    31    10    11    1
    32    11    12    1
    33    12     7    1
    34     6     1   ar
    35    34    29   ar
    36    26    21   ar
    37    19    20    1
@<TRIPOS>MOLECULE
*****
 34 37 0 0 0
SMALL
GASTEIGER

@<TRIPOS>ATOM
      1 C         141.5157  139.6086  160.3717 C.ar    1  UNL1        0.0483
      2 C         142.9871  139.6944  160.0933 C.ar    1  UNL1        0.0176
      3 C         143.9706  139.6006  161.2220 C.ar    1  UNL1        0.0383
      4 C         143.4827  139.4211  162.6290 C.ar    1  UNL1        0.1434
      5 C         142.0112  139.3354  162.9073 C.ar    1  UNL1        0.0888
      6 C         141.0277  139.4292  161.7786 C.ar    1  UNL1        0.0221
      7 N         138.5651  139.8900  156.9856 N.3     1  UNL1       -0.2676
      8 C         138.5093  140.8777  158.1131 C.3     1  UNL1        0.0939
      9 C         139.4928  140.7839  159.2418 C.3     1  UNL1        0.1081
     10 N         140.5322  139.7024  159.2430 N.pl3   1  UNL1       -0.3046
     11 C         140.5880  138.7147  158.1155 C.3     1  UNL1        0.1081
     12 C         139.6045  138.8085  156.9868 C.3     1  UNL1        0.0939
     13 C         137.5816  139.9837  155.8569 C.3     1  UNL1        0.1046
     14 C         136.3205  140.7781  156.0251 C.3     1  UNL1        0.1595
     15 C         133.7977  140.2227  156.3030 C.3     1  UNL1        0.1742
     16 O         135.1941  140.2311  156.8510 O.3     1  UNL1       -0.3496
     17 C         141.5232  139.1559  164.3144 C.2     1  UNL1        0.2525
     18 O         140.7942  137.9034  164.7013 O.2     1  UNL1       -0.2697
     19 N         141.7643  140.2289  165.3344 N.am    1  UNL1       -0.2790
     20 H         142.2428  141.0510  165.0804 H       1  UNL1        0.1552
     21 C         141.2763  140.0494  166.7415 C.ar    1  UNL1        0.0734
     22 C         142.2605  139.9285  167.8669 C.ar    1  UNL1        0.0388
     23 C         141.7726  139.7490  169.2739 C.ar    1  UNL1        0.1235
     24 N         140.3004  139.6905  169.5555 N.ar    1  UNL1       -0.1463
     25 N         139.3162  139.8115  168.4300 N.ar    1  UNL1       -0.1450
     26 C         139.8041  139.9909  167.0230 C.ar    1  UNL1        0.1368
     27 O         144.4662  139.3273  163.7577 O.3     1  UNL1       -0.4705
     28 C         145.3758  140.4817  164.0577 C.3     1  UNL1        0.2320
     29 C         144.8649  141.8876  163.9471 C.ar    1  UNL1        0.0212
     30 C         144.3163  142.5836  165.1574 C.ar    1  UNL1       -0.0007
     31 C         143.8054  143.9896  165.0468 C.ar    1  UNL1       -0.0002
     32 C         143.8430  144.6995  163.7259 C.ar    1  UNL1       -0.0000
     33 C         144.3916  144.0035  162.5157 C.ar    1  UNL1       -0.0002
     34 C         144.9026  142.5976  162.6263 C.ar    1  UNL1       -0.0007
@<TRIPOS>BOND
     1    15    16    1
     2    16    14    1
     3    14    13    1
     4    13     7    1
     5     7     8    1
     6     8     9    1
     7     9    10    1
     8    10     1    1
     9     1     2   ar
    10     2     3   ar
    11     3     4   ar
    12     4    27    1
    13    27    28    1
    14    28    29    1
    15    29    30   ar
    16    30    31   ar
    17    31    32   ar
    18    32    33   ar
    19    33    34   ar
    20     4     5   ar
    21     5    17    1
    22    17    18    2
    23    17    19   am
    24    19    21    1
    25    21    22   ar
    26    22    23   ar
    27    23    24   ar
    28    24    25   ar
    29    25    26   ar
    30     5     6   ar
    31    10    11    1
    32    11    12    1
    33    12     7    1
    34     6     1   ar
    35    34    29   ar
    36    26    21   ar
    37    19    20    1
@<TRIPOS>MOLECULE
*****
 34 37 0 0 0
SMALL
GASTEIGER

@<TRIPOS>ATOM
      1 C         140.6979  139.4751  159.4181 C.ar    1  UNL1        0.0483
      2 C         140.3778  140.8623  158.9457 C.ar    1  UNL1        0.0176
      3 C         139.9666  141.9144  159.9326 C.ar    1  UNL1        0.0383
      4 C         139.8754  141.5794  161.3918 C.ar    1  UNL1        0.1434
      5 C         140.1955  140.1922  161.8642 C.ar    1  UNL1        0.0888
      6 C         140.6067  139.1400  160.8773 C.ar    1  UNL1        0.0221
      7 N         141.9317  136.3186  156.4576 N.3     1  UNL1       -0.2676
      8 C         140.5733  136.9474  156.3611 C.3     1  UNL1        0.0939
      9 C         140.1620  137.9996  157.3479 C.3     1  UNL1        0.1081
     10 N         141.1091  138.4229  158.4313 N.pl3   1  UNL1       -0.3046
     11 C         142.4675  137.7941  158.5277 C.3     1  UNL1        0.1081
     12 C         142.8788  136.7420  157.5409 C.3     1  UNL1        0.0939
     13 C         142.3429  135.2665  155.4707 C.3     1  UNL1        0.1046
     14 C         142.4004  133.8272  155.8892 C.3     1  UNL1        0.1595
     15 C         141.2643  131.6677  154.9971 C.3     1  UNL1        0.1742
     16 O         141.1847  132.9586  155.7570 O.3     1  UNL1       -0.3496
     17 C         140.1043  139.8571  163.3235 C.2     1  UNL1        0.2525
     18 O         141.1232  138.9521  163.9502 O.2     1  UNL1       -0.2697
     19 N         138.9943  140.4270  164.1559 N.am    1  UNL1       -0.2790
     20 H         138.3256  141.0210  163.7445 H       1  UNL1        0.1552
     21 C         138.9031  140.0919  165.6152 C.ar    1  UNL1        0.0734
     22 C         139.7484  140.8321  166.6089 C.ar    1  UNL1        0.0388
     23 C         139.6573  140.4970  168.0682 C.ar    1  UNL1        0.1235
     24 N         138.7208  139.4217  168.5337 N.ar    1  UNL1       -0.1463
     25 N         137.8755  138.6815  167.5399 N.ar    1  UNL1       -0.1450
     26 C         137.9666  139.0166  166.0807 C.ar    1  UNL1        0.1368
     27 O         139.4641  142.6315  162.3786 O.3     1  UNL1       -0.4705
     28 C         140.2585  143.8982  162.4992 C.3     1  UNL1        0.2320
     29 C         141.5252  143.9155  163.3024 C.ar    1  UNL1        0.0212
     30 C         142.5014  145.0427  163.1393 C.ar    1  UNL1       -0.0007
     31 C         143.7681  145.0600  163.9424 C.ar    1  UNL1       -0.0002
     32 C         144.0587  143.9501  164.9087 C.ar    1  UNL1       -0.0000
     33 C         143.0826  142.8229  165.0718 C.ar    1  UNL1       -0.0002
     34 C         141.8159  142.8056  164.2686 C.ar    1  UNL1       -0.0007
@<TRIPOS>BOND
     1    15    16    1
     2    16    14    1
     3    14    13    1
     4    13     7    1
     5     7     8    1
     6     8     9    1
     7     9    10    1
     8    10     1    1
     9     1     2   ar
    10     2     3   ar
    11     3     4   ar
    12     4    27    1
    13    27    28    1
    14    28    29    1
    15    29    30   ar
    16    30    31   ar
    17    31    32   ar
    18    32    33   ar
    19    33    34   ar
    20     4     5   ar
    21     5    17    1
    22    17    18    2
    23    17    19   am
    24    19    21    1
    25    21    22   ar
    26    22    23   ar
    27    23    24   ar
    28    24    25   ar
    29    25    26   ar
    30     5     6   ar
    31    10    11    1
    32    11    12    1
    33    12     7    1
    34     6     1   ar
    35    34    29   ar
    36    26    21   ar
    37    19    20    1
