@<TRIPOS>MOLECULE
*****
 33 37 0 0 0
SMALL
GASTEIGER

@<TRIPOS>ATOM
      1 N         142.5156  144.0077  162.5830 N.3     1  UNL1       -0.2724
      2 C         143.4387  145.0077  163.2138 C.3     1  UNL1        0.0724
      3 C         144.0672  144.3653  164.4148 C.3     1  UNL1        0.0215
      4 C         144.5225  143.4748  165.5327 C.3     1  UNL1        0.0073
      5 C         143.5325  142.9682  164.5262 C.3     1  UNL1        0.0371
      6 C         142.5736  142.7473  163.3941 C.3     1  UNL1        0.0762
      7 C         143.3834  141.6019  165.1269 C.ar    1  UNL1        0.0060
      8 C         142.4527  141.3886  166.2836 C.ar    1  UNL1        0.0018
      9 C         142.3036  140.0222  166.8844 C.ar    1  UNL1        0.0712
     10 C         143.0853  138.8691  166.3282 C.ar    1  UNL1        0.0061
     11 C         144.0161  139.0824  165.1714 C.ar    1  UNL1        0.0293
     12 C         144.1652  140.4488  164.5707 C.ar    1  UNL1        0.1361
     13 F         145.0959  140.6620  163.4139 F       1  UNL1       -0.2045
     14 C         141.3728  139.8089  168.0412 C.3     1  UNL1        0.4186
     15 F         140.4420  139.5957  169.1979 F       1  UNL1       -0.1659
     16 F         142.4452  139.0489  168.7639 F       1  UNL1       -0.1659
     17 F         140.3004  140.5690  167.3183 F       1  UNL1       -0.1659
     18 C         141.6811  144.2293  161.3564 C.3     1  UNL1        0.0730
     19 C         140.5904  145.2590  161.3673 C.3     1  UNL1        0.0294
     20 C         139.7989  145.4999  162.6184 C.3     1  UNL1        0.0666
     21 S         138.4370  144.8904  162.7734 S.3     1  UNL1       -0.0756
     22 C         138.3494  141.0990  163.5997 C.ar    1  UNL1        0.2029
     23 N         137.7510  141.1098  162.2242 N.ar    1  UNL1       -0.1250
     24 N         137.7110  142.5313  161.7473 N.ar    1  UNL1       -0.1220
     25 C         138.2847  143.3991  162.8280 C.ar    1  UNL1        0.1933
     26 N         138.6792  142.5138  163.9728 N.ar    1  UNL1       -0.2860
     27 C         139.2954  142.9645  165.2640 C.3     1  UNL1        0.1341
     28 C         140.7970  138.9641  163.2819 C.3     1  UNL1        0.0556
     29 C         139.7028  138.9049  164.3062 C.ar    1  UNL1        0.1001
     30 N         139.5416  137.8540  165.3643 N.ar    1  UNL1       -0.2085
     31 C         138.3169  138.1858  166.1643 C.ar    1  UNL1        0.2849
     32 O         137.7213  139.4417  165.6007 O.2     1  UNL1       -0.4283
     33 C         138.5778  139.8861  164.4523 C.ar    1  UNL1        0.1964
@<TRIPOS>BOND
     1    28    29    1
     2    29    30   ar
     3    30    31   ar
     4    31    32   ar
     5    32    33   ar
     6    33    22    1
     7    22    23   ar
     8    23    24   ar
     9    24    25   ar
    10    25    21    1
    11    21    20    1
    12    20    19    1
    13    19    18    1
    14    18     1    1
    15     1     2    1
    16     2     3    1
    17     3     4    1
    18     4     5    1
    19     5     7    1
    20     7     8   ar
    21     8     9   ar
    22     9    14    1
    23    14    15    1
    24    14    16    1
    25    14    17    1
    26     9    10   ar
    27    10    11   ar
    28    11    12   ar
    29    12    13    1
    30     5     6    1
    31    25    26   ar
    32    26    27    1
    33    33    29   ar
    34    26    22   ar
    35     6     1    1
    36     5     3    1
    37    12     7   ar
@<TRIPOS>MOLECULE
*****
 33 37 0 0 0
SMALL
GASTEIGER

@<TRIPOS>ATOM
      1 N         142.6024  143.8804  162.8081 N.3     1  UNL1       -0.2724
      2 C         143.9796  143.6854  162.2466 C.3     1  UNL1        0.0724
      3 C         144.7302  142.7693  163.1672 C.3     1  UNL1        0.0215
      4 C         145.2139  141.8540  164.2527 C.3     1  UNL1        0.0073
      5 C         143.8168  142.3981  164.2977 C.3     1  UNL1        0.0371
      6 C         142.5018  143.0848  164.0758 C.3     1  UNL1        0.0762
      7 C         143.4241  141.7163  165.5748 C.ar    1  UNL1        0.0060
      8 C         143.3242  142.5057  166.8464 C.ar    1  UNL1        0.0018
      9 C         142.9315  141.8238  168.1235 C.ar    1  UNL1        0.0712
     10 C         142.6387  140.3527  168.1290 C.ar    1  UNL1        0.0061
     11 C         142.7387  139.5633  166.8573 C.ar    1  UNL1        0.0293
     12 C         143.1314  140.2451  165.5803 C.ar    1  UNL1        0.1361
     13 F         143.2313  139.4558  164.3087 F       1  UNL1       -0.2045
     14 C         142.8315  142.6132  169.3951 C.3     1  UNL1        0.4186
     15 F         142.7315  143.4026  170.6666 F       1  UNL1       -0.1659
     16 F         144.1994  142.1441  169.7938 F       1  UNL1       -0.1659
     17 F         141.4636  143.0823  168.9963 F       1  UNL1       -0.1659
     18 C         141.5165  144.7230  162.2075 C.3     1  UNL1        0.0730
     19 C         141.4466  144.9080  160.7206 C.3     1  UNL1        0.0294
     20 C         140.1661  144.6318  159.9898 C.3     1  UNL1        0.0666
     21 S         139.6656  143.2237  159.8596 S.3     1  UNL1       -0.0756
     22 C         138.5955  141.0835  162.9156 C.ar    1  UNL1        0.2029
     23 N         137.3853  141.9501  162.7307 N.ar    1  UNL1       -0.1250
     24 N         137.6388  142.8573  161.5635 N.ar    1  UNL1       -0.1220
     25 C         139.0057  142.5514  161.0269 C.ar    1  UNL1        0.1933
     26 N         139.5970  141.4551  161.8627 N.ar    1  UNL1       -0.2860
     27 C         140.9520  140.8386  161.6778 C.3     1  UNL1        0.1341
     28 C         139.6342  141.5797  165.9693 C.3     1  UNL1        0.0556
     29 C         139.2505  140.2582  165.3722 C.ar    1  UNL1        0.1001
     30 N         139.2768  138.9328  166.0741 N.ar    1  UNL1       -0.2085
     31 C         138.8157  137.8855  165.1042 C.ar    1  UNL1        0.2849
     32 O         138.5043  138.5637  163.8031 O.2     1  UNL1       -0.4283
     33 C         138.7731  140.0301  163.9688 C.ar    1  UNL1        0.1964
@<TRIPOS>BOND
     1    28    29    1
     2    29    30   ar
     3    30    31   ar
     4    31    32   ar
     5    32    33   ar
     6    33    22    1
     7    22    23   ar
     8    23    24   ar
     9    24    25   ar
    10    25    21    1
    11    21    20    1
    12    20    19    1
    13    19    18    1
    14    18     1    1
    15     1     2    1
    16     2     3    1
    17     3     4    1
    18     4     5    1
    19     5     7    1
    20     7     8   ar
    21     8     9   ar
    22     9    14    1
    23    14    15    1
    24    14    16    1
    25    14    17    1
    26     9    10   ar
    27    10    11   ar
    28    11    12   ar
    29    12    13    1
    30     5     6    1
    31    25    26   ar
    32    26    27    1
    33    33    29   ar
    34    26    22   ar
    35     6     1    1
    36     5     3    1
    37    12     7   ar
@<TRIPOS>MOLECULE
*****
 33 37 0 0 0
SMALL
GASTEIGER

@<TRIPOS>ATOM
      1 N         140.7906  138.1588  163.3807 N.3     1  UNL1       -0.2724
      2 C         141.0716  137.3211  164.5928 C.3     1  UNL1        0.0724
      3 C         142.2011  137.9593  165.3458 C.3     1  UNL1        0.0215
      4 C         143.3208  138.8098  165.8681 C.3     1  UNL1        0.0073
      5 C         142.6182  139.1915  164.5989 C.3     1  UNL1        0.0371
      6 C         141.7465  139.3147  163.3844 C.3     1  UNL1        0.0762
      7 C         143.4272  140.4272  164.3374 C.ar    1  UNL1        0.0060
      8 C         142.7519  141.7647  164.2665 C.ar    1  UNL1        0.0018
      9 C         143.5609  143.0005  164.0050 C.ar    1  UNL1        0.0712
     10 C         145.0453  142.8988  163.8142 C.ar    1  UNL1        0.0061
     11 C         145.7206  141.5612  163.8851 C.ar    1  UNL1        0.0293
     12 C         144.9116  140.3255  164.1466 C.ar    1  UNL1        0.1361
     13 F         145.5869  138.9880  164.2175 F       1  UNL1       -0.2045
     14 C         142.8855  144.3380  163.9341 C.3     1  UNL1        0.4186
     15 F         142.2102  145.6754  163.8633 F       1  UNL1       -0.1659
     16 F         144.0136  144.9488  164.7116 F       1  UNL1       -0.1659
     17 F         141.7575  143.7272  163.1566 F       1  UNL1       -0.1659
     18 C         139.7385  137.8881  162.3463 C.3     1  UNL1        0.0730
     19 C         138.4170  138.5940  162.4181 C.3     1  UNL1        0.0294
     20 C         138.3637  140.0924  162.3731 C.3     1  UNL1        0.0666
     21 S         137.7469  140.8553  163.5079 S.3     1  UNL1       -0.0756
     22 C         139.8035  141.2604  166.7746 C.ar    1  UNL1        0.2029
     23 N         139.9795  142.6135  166.1516 N.ar    1  UNL1       -0.1250
     24 N         139.2306  142.6265  164.8522 N.ar    1  UNL1       -0.1220
     25 C         138.5916  141.2814  164.6719 C.ar    1  UNL1        0.1933
     26 N         138.9458  140.4371  165.8602 N.ar    1  UNL1       -0.2860
     27 C         138.5173  139.0186  166.0929 C.3     1  UNL1        0.1341
     28 C         142.8001  141.9335  167.8778 C.3     1  UNL1        0.0556
     29 C         141.7607  141.1191  168.5896 C.ar    1  UNL1        0.1001
     30 N         141.9164  140.4712  169.9335 N.ar    1  UNL1       -0.2085
     31 C         140.6351  139.7614  170.2570 C.ar    1  UNL1        0.2849
     32 O         139.6878  139.9706  169.1131 O.2     1  UNL1       -0.4283
     33 C         140.3834  140.8098  168.0826 C.ar    1  UNL1        0.1964
@<TRIPOS>BOND
     1    28    29    1
     2    29    30   ar
     3    30    31   ar
     4    31    32   ar
     5    32    33   ar
     6    33    22    1
     7    22    23   ar
     8    23    24   ar
     9    24    25   ar
    10    25    21    1
    11    21    20    1
    12    20    19    1
    13    19    18    1
    14    18     1    1
    15     1     2    1
    16     2     3    1
    17     3     4    1
    18     4     5    1
    19     5     7    1
    20     7     8   ar
    21     8     9   ar
    22     9    14    1
    23    14    15    1
    24    14    16    1
    25    14    17    1
    26     9    10   ar
    27    10    11   ar
    28    11    12   ar
    29    12    13    1
    30     5     6    1
    31    25    26   ar
    32    26    27    1
    33    33    29   ar
    34    26    22   ar
    35     6     1    1
    36     5     3    1
    37    12     7   ar
@<TRIPOS>MOLECULE
*****
 33 37 0 0 0
SMALL
GASTEIGER

@<TRIPOS>ATOM
      1 N         144.2369  141.1645  162.7564 N.3     1  UNL1       -0.2724
      2 C         145.2136  140.6362  163.7648 C.3     1  UNL1        0.0724
      3 C         144.5254  139.5670  164.5607 C.3     1  UNL1        0.0215
      4 C         143.5923  138.5646  165.1725 C.3     1  UNL1        0.0073
      5 C         143.1234  139.4346  164.0442 C.3     1  UNL1        0.0371
      6 C         142.9451  140.4218  162.9291 C.3     1  UNL1        0.0762
      7 C         141.7336  138.8739  163.9809 C.ar    1  UNL1        0.0060
      8 C         140.8028  139.0434  165.1449 C.ar    1  UNL1        0.0018
      9 C         139.4129  138.4827  165.0817 C.ar    1  UNL1        0.0712
     10 C         138.9539  137.7524  163.8545 C.ar    1  UNL1        0.0061
     11 C         139.8849  137.5828  162.6905 C.ar    1  UNL1        0.0293
     12 C         141.2747  138.1435  162.7537 C.ar    1  UNL1        0.1361
     13 F         142.2055  137.9739  161.5898 F       1  UNL1       -0.2045
     14 C         138.4821  138.6523  166.2456 C.3     1  UNL1        0.4186
     15 F         137.5513  138.8220  167.4095 F       1  UNL1       -0.1659
     16 F         138.0998  137.2050  166.1508 F       1  UNL1       -0.1659
     17 F         138.8645  140.0997  166.3405 F       1  UNL1       -0.1659
     18 C         144.5049  142.2456  161.7517 C.3     1  UNL1        0.0730
     19 C         143.5908  143.4316  161.6643 C.3     1  UNL1        0.0294
     20 C         143.3828  144.3082  162.8636 C.3     1  UNL1        0.0666
     21 S         142.1959  144.0906  163.7548 S.3     1  UNL1       -0.0756
     22 C         141.8468  142.1063  167.0722 C.ar    1  UNL1        0.2029
     23 N         143.3377  142.2325  166.9655 N.ar    1  UNL1       -0.1250
     24 N         143.6499  142.9912  165.7098 N.ar    1  UNL1       -0.1220
     25 C         142.3520  143.3339  165.0404 C.ar    1  UNL1        0.1933
     26 N         141.2377  142.7870  165.8825 N.ar    1  UNL1       -0.2860
     27 C         139.7715  142.9008  165.5867 C.3     1  UNL1        0.1341
     28 C         142.6096  139.2286  168.4088 C.3     1  UNL1        0.0556
     29 C         141.4474  140.0972  168.7895 C.ar    1  UNL1        0.1001
     30 N         140.4319  139.7955  169.8513 N.ar    1  UNL1       -0.2085
     31 C         139.4536  140.9318  169.8932 C.ar    1  UNL1        0.2849
     32 O         139.8645  141.9357  168.8573 O.2     1  UNL1       -0.4283
     33 C         141.0968  141.4198  168.1752 C.ar    1  UNL1        0.1964
@<TRIPOS>BOND
     1    28    29    1
     2    29    30   ar
     3    30    31   ar
     4    31    32   ar
     5    32    33   ar
     6    33    22    1
     7    22    23   ar
     8    23    24   ar
     9    24    25   ar
    10    25    21    1
    11    21    20    1
    12    20    19    1
    13    19    18    1
    14    18     1    1
    15     1     2    1
    16     2     3    1
    17     3     4    1
    18     4     5    1
    19     5     7    1
    20     7     8   ar
    21     8     9   ar
    22     9    14    1
    23    14    15    1
    24    14    16    1
    25    14    17    1
    26     9    10   ar
    27    10    11   ar
    28    11    12   ar
    29    12    13    1
    30     5     6    1
    31    25    26   ar
    32    26    27    1
    33    33    29   ar
    34    26    22   ar
    35     6     1    1
    36     5     3    1
    37    12     7   ar
@<TRIPOS>MOLECULE
*****
 33 37 0 0 0
SMALL
GASTEIGER

@<TRIPOS>ATOM
      1 N         144.3626  142.3547  163.1653 N.3     1  UNL1       -0.2724
      2 C         145.6201  141.7917  163.7584 C.3     1  UNL1        0.0724
      3 C         145.3216  140.4055  164.2478 C.3     1  UNL1        0.0215
      4 C         144.7345  139.0792  164.6300 C.3     1  UNL1        0.0073
      5 C         143.8796  140.1118  163.9572 C.3     1  UNL1        0.0371
      6 C         143.2870  141.3165  163.2882 C.3     1  UNL1        0.0762
      7 C         142.6252  139.2896  163.9395 C.ar    1  UNL1        0.0060
      8 C         141.5359  139.5618  164.9341 C.ar    1  UNL1        0.0018
      9 C         140.2814  138.7395  164.9163 C.ar    1  UNL1        0.0712
     10 C         140.1164  137.6450  163.9040 C.ar    1  UNL1        0.0061
     11 C         141.2058  137.3728  162.9093 C.ar    1  UNL1        0.0293
     12 C         142.4602  138.1951  162.9271 C.ar    1  UNL1        0.1361
     13 F         143.5495  137.9228  161.9325 F       1  UNL1       -0.2045
     14 C         139.1921  139.0117  165.9110 C.3     1  UNL1        0.4186
     15 F         138.1029  139.2840  166.9055 F       1  UNL1       -0.1659
     16 F         138.5606  137.6918  165.5806 F       1  UNL1       -0.1659
     17 F         139.8237  140.3316  166.2413 F       1  UNL1       -0.1659
     18 C         144.2079  143.7167  162.5562 C.3     1  UNL1        0.0730
     19 C         143.7003  144.8570  163.3880 C.3     1  UNL1        0.0294
     20 C         142.2681  144.8812  163.8332 C.3     1  UNL1        0.0666
     21 S         141.2152  145.4691  162.9410 S.3     1  UNL1       -0.0756
     22 C         138.7569  143.0002  161.2305 C.ar    1  UNL1        0.2029
     23 N         137.8667  143.6277  162.2618 N.ar    1  UNL1       -0.1250
     24 N         138.6792  144.6289  163.0281 N.ar    1  UNL1       -0.1220
     25 C         140.0716  144.6202  162.4704 C.ar    1  UNL1        0.1933
     26 N         140.1195  143.6136  161.3593 N.ar    1  UNL1       -0.2860
     27 C         141.3197  143.2792  160.5239 C.3     1  UNL1        0.1341
     28 C         137.9259  139.9256  161.9419 C.3     1  UNL1        0.0556
     29 C         137.9730  140.5315  160.5704 C.ar    1  UNL1        0.1001
     30 N         137.6463  139.8303  159.2852 N.ar    1  UNL1       -0.2085
     31 C         137.8263  140.8103  158.1639 C.ar    1  UNL1        0.2849
     32 O         138.2642  142.1169  158.7561 O.2     1  UNL1       -0.4283
     33 C         138.3549  141.9446  160.2434 C.ar    1  UNL1        0.1964
@<TRIPOS>BOND
     1    28    29    1
     2    29    30   ar
     3    30    31   ar
     4    31    32   ar
     5    32    33   ar
     6    33    22    1
     7    22    23   ar
     8    23    24   ar
     9    24    25   ar
    10    25    21    1
    11    21    20    1
    12    20    19    1
    13    19    18    1
    14    18     1    1
    15     1     2    1
    16     2     3    1
    17     3     4    1
    18     4     5    1
    19     5     7    1
    20     7     8   ar
    21     8     9   ar
    22     9    14    1
    23    14    15    1
    24    14    16    1
    25    14    17    1
    26     9    10   ar
    27    10    11   ar
    28    11    12   ar
    29    12    13    1
    30     5     6    1
    31    25    26   ar
    32    26    27    1
    33    33    29   ar
    34    26    22   ar
    35     6     1    1
    36     5     3    1
    37    12     7   ar
@<TRIPOS>MOLECULE
*****
 33 37 0 0 0
SMALL
GASTEIGER

@<TRIPOS>ATOM
      1 N         140.8501  144.3865  162.9905 N.3     1  UNL1       -0.2724
      2 C         139.6471  145.2818  162.9564 C.3     1  UNL1        0.0724
      3 C         138.5800  144.6571  163.8056 C.3     1  UNL1        0.0215
      4 C         137.7272  143.8081  164.7010 C.3     1  UNL1        0.0073
      5 C         139.1235  143.3757  164.3646 C.3     1  UNL1        0.0371
      6 C         140.5265  143.2084  163.8609 C.3     1  UNL1        0.0762
      7 C         139.0919  142.1072  165.1646 C.ar    1  UNL1        0.0060
      8 C         139.9115  141.9887  166.4153 C.ar    1  UNL1        0.0018
      9 C         139.8798  140.7202  167.2153 C.ar    1  UNL1        0.0712
     10 C         139.0286  139.5703  166.7646 C.ar    1  UNL1        0.0061
     11 C         138.2090  139.6889  165.5139 C.ar    1  UNL1        0.0293
     12 C         138.2406  140.9573  164.7139 C.ar    1  UNL1        0.1361
     13 F         137.4210  141.0758  163.4632 F       1  UNL1       -0.2045
     14 C         140.6994  140.6017  168.4660 C.3     1  UNL1        0.4186
     15 F         141.5189  140.4832  169.7167 F       1  UNL1       -0.1659
     16 F         141.5231  139.5248  167.8242 F       1  UNL1       -0.1659
     17 F         139.8757  141.6786  169.1078 F       1  UNL1       -0.1659
     18 C         142.1486  144.6270  162.2793 C.3     1  UNL1        0.0730
     19 C         143.4447  144.5149  163.0260 C.3     1  UNL1        0.0294
     20 C         144.6047  143.7900  162.4104 C.3     1  UNL1        0.0666
     21 S         144.9655  142.4132  162.8841 S.3     1  UNL1       -0.0756
     22 C         141.9847  139.9665  163.3236 C.ar    1  UNL1        0.2029
     23 N         142.4870  140.0676  164.7334 N.ar    1  UNL1       -0.1250
     24 N         143.6647  140.9964  164.7403 N.ar    1  UNL1       -0.1220
     25 C         143.8903  141.4694  163.3348 C.ar    1  UNL1        0.1933
     26 N         142.8520  140.8328  162.4593 N.ar    1  UNL1       -0.2860
     27 C         142.7066  141.0283  160.9792 C.3     1  UNL1        0.1341
     28 C         141.1487  137.0195  164.4488 C.3     1  UNL1        0.0556
     29 C         140.4353  137.7890  163.3768 C.ar    1  UNL1        0.1001
     30 N         139.2124  137.3389  162.6338 N.ar    1  UNL1       -0.2085
     31 C         138.8410  138.4153  161.6575 C.ar    1  UNL1        0.2849
     32 O         139.8342  139.5305  161.7970 O.2     1  UNL1       -0.4283
     33 C         140.8195  139.1434  162.8596 C.ar    1  UNL1        0.1964
@<TRIPOS>BOND
     1    28    29    1
     2    29    30   ar
     3    30    31   ar
     4    31    32   ar
     5    32    33   ar
     6    33    22    1
     7    22    23   ar
     8    23    24   ar
     9    24    25   ar
    10    25    21    1
    11    21    20    1
    12    20    19    1
    13    19    18    1
    14    18     1    1
    15     1     2    1
    16     2     3    1
    17     3     4    1
    18     4     5    1
    19     5     7    1
    20     7     8   ar
    21     8     9   ar
    22     9    14    1
    23    14    15    1
    24    14    16    1
    25    14    17    1
    26     9    10   ar
    27    10    11   ar
    28    11    12   ar
    29    12    13    1
    30     5     6    1
    31    25    26   ar
    32    26    27    1
    33    33    29   ar
    34    26    22   ar
    35     6     1    1
    36     5     3    1
    37    12     7   ar
@<TRIPOS>MOLECULE
*****
 33 37 0 0 0
SMALL
GASTEIGER

@<TRIPOS>ATOM
      1 N         144.2102  141.2059  164.0139 N.3     1  UNL1       -0.2724
      2 C         144.9891  139.9287  164.1240 C.3     1  UNL1        0.0724
      3 C         144.3715  139.1013  165.2121 C.3     1  UNL1        0.0215
      4 C         143.5553  138.5154  166.3259 C.3     1  UNL1        0.0073
      5 C         143.2108  139.8672  165.7745 C.3     1  UNL1        0.0371
      6 C         143.1111  141.1678  165.0340 C.3     1  UNL1        0.0762
      7 C         142.0397  140.1117  166.6793 C.ar    1  UNL1        0.0060
      8 C         140.7420  139.4002  166.4353 C.ar    1  UNL1        0.0018
      9 C         139.5708  139.6447  167.3401 C.ar    1  UNL1        0.0712
     10 C         139.6974  140.6008  168.4890 C.ar    1  UNL1        0.0061
     11 C         140.9953  141.3124  168.7330 C.ar    1  UNL1        0.0293
     12 C         142.1664  141.0678  167.8282 C.ar    1  UNL1        0.1361
     13 F         143.4641  141.7793  168.0723 F       1  UNL1       -0.2045
     14 C         138.2730  138.9332  167.0961 C.3     1  UNL1        0.4186
     15 F         136.9753  138.2217  166.8521 F       1  UNL1       -0.1659
     16 F         138.6876  138.6627  165.6801 F       1  UNL1       -0.1659
     17 F         137.8585  139.2037  168.5121 F       1  UNL1       -0.1659
     18 C         144.4825  142.3246  163.0525 C.3     1  UNL1        0.0730
     19 C         144.1829  143.7408  163.4455 C.3     1  UNL1        0.0294
     20 C         143.2884  144.5844  162.5862 C.3     1  UNL1        0.0666
     21 S         141.8529  144.7879  162.9710 S.3     1  UNL1       -0.0756
     22 C         139.7996  141.5007  163.1782 C.ar    1  UNL1        0.2029
     23 N         139.5532  142.0826  164.5386 N.ar    1  UNL1       -0.1250
     24 N         140.2924  143.3848  164.6266 N.ar    1  UNL1       -0.1220
     25 C         140.9956  143.6077  163.3206 C.ar    1  UNL1        0.1933
     26 N         140.6910  142.4433  162.4254 N.ar    1  UNL1       -0.2860
     27 C         141.1903  142.2546  161.0236 C.3     1  UNL1        0.1341
     28 C         141.4808  138.7340  162.7680 C.3     1  UNL1        0.0556
     29 C         140.0235  138.9322  162.4728 C.ar    1  UNL1        0.1001
     30 N         139.0833  137.8934  161.9373 N.ar    1  UNL1       -0.2085
     31 C         137.7293  138.5232  161.7949 C.ar    1  UNL1        0.2849
     32 O         137.8329  139.9510  162.2424 O.2     1  UNL1       -0.4283
     33 C         139.2508  140.2038  162.6614 C.ar    1  UNL1        0.1964
@<TRIPOS>BOND
     1    28    29    1
     2    29    30   ar
     3    30    31   ar
     4    31    32   ar
     5    32    33   ar
     6    33    22    1
     7    22    23   ar
     8    23    24   ar
     9    24    25   ar
    10    25    21    1
    11    21    20    1
    12    20    19    1
    13    19    18    1
    14    18     1    1
    15     1     2    1
    16     2     3    1
    17     3     4    1
    18     4     5    1
    19     5     7    1
    20     7     8   ar
    21     8     9   ar
    22     9    14    1
    23    14    15    1
    24    14    16    1
    25    14    17    1
    26     9    10   ar
    27    10    11   ar
    28    11    12   ar
    29    12    13    1
    30     5     6    1
    31    25    26   ar
    32    26    27    1
    33    33    29   ar
    34    26    22   ar
    35     6     1    1
    36     5     3    1
    37    12     7   ar
@<TRIPOS>MOLECULE
*****
 33 37 0 0 0
SMALL
GASTEIGER

@<TRIPOS>ATOM
      1 N         142.3610  138.7146  163.8125 N.3     1  UNL1       -0.2724
      2 C         141.8734  137.5790  164.6626 C.3     1  UNL1        0.0724
      3 C         140.4605  137.8773  165.0687 C.3     1  UNL1        0.0215
      4 C         139.0898  138.4376  165.3075 C.3     1  UNL1        0.0073
      5 C         140.0750  139.1973  164.4696 C.3     1  UNL1        0.0371
      6 C         141.2495  139.7148  163.6933 C.3     1  UNL1        0.0762
      7 C         139.1695  140.3564  164.1752 C.ar    1  UNL1        0.0060
      8 C         139.3476  141.6525  164.9089 C.ar    1  UNL1        0.0018
      9 C         138.4420  142.8116  164.6145 C.ar    1  UNL1        0.0712
     10 C         137.3584  142.6745  163.5863 C.ar    1  UNL1        0.0061
     11 C         137.1803  141.3783  162.8526 C.ar    1  UNL1        0.0293
     12 C         138.0859  140.2192  163.1471 C.ar    1  UNL1        0.1361
     13 F         137.9078  138.9231  162.4134 F       1  UNL1       -0.2045
     14 C         138.6201  144.1077  165.3482 C.3     1  UNL1        0.4186
     15 F         138.7981  145.4038  166.0818 F       1  UNL1       -0.1659
     16 F         140.0069  143.6939  165.7427 F       1  UNL1       -0.1659
     17 F         137.2333  144.5216  164.9536 F       1  UNL1       -0.1659
     18 C         143.7212  138.8298  163.1909 C.3     1  UNL1        0.0730
     19 C         144.8569  139.4175  163.9750 C.3     1  UNL1        0.0294
     20 C         144.7245  140.7853  164.5764 C.3     1  UNL1        0.0666
     21 S         145.2353  141.9840  163.8331 S.3     1  UNL1       -0.0756
     22 C         143.0857  143.2359  160.8537 C.ar    1  UNL1        0.2029
     23 N         144.2801  142.6805  160.1362 N.ar    1  UNL1       -0.1250
     24 N         145.2307  142.1439  161.1649 N.ar    1  UNL1       -0.1220
     25 C         144.6238  142.3677  162.5182 C.ar    1  UNL1        0.1933
     26 N         143.2981  143.0426  162.3259 N.ar    1  UNL1       -0.2860
     27 C         142.3511  143.4522  163.4147 C.3     1  UNL1        0.1341
     28 C         140.1110  141.9166  160.6080 C.3     1  UNL1        0.0556
     29 C         140.5217  143.2665  160.0987 C.ar    1  UNL1        0.1001
     30 N         139.6371  144.2469  159.3871 N.ar    1  UNL1       -0.2085
     31 C         140.4578  145.4592  159.0603 C.ar    1  UNL1        0.2849
     32 O         141.8494  145.2280  159.5698 O.2     1  UNL1       -0.4283
     33 C         141.8889  143.8729  160.2116 C.ar    1  UNL1        0.1964
@<TRIPOS>BOND
     1    28    29    1
     2    29    30   ar
     3    30    31   ar
     4    31    32   ar
     5    32    33   ar
     6    33    22    1
     7    22    23   ar
     8    23    24   ar
     9    24    25   ar
    10    25    21    1
    11    21    20    1
    12    20    19    1
    13    19    18    1
    14    18     1    1
    15     1     2    1
    16     2     3    1
    17     3     4    1
    18     4     5    1
    19     5     7    1
    20     7     8   ar
    21     8     9   ar
    22     9    14    1
    23    14    15    1
    24    14    16    1
    25    14    17    1
    26     9    10   ar
    27    10    11   ar
    28    11    12   ar
    29    12    13    1
    30     5     6    1
    31    25    26   ar
    32    26    27    1
    33    33    29   ar
    34    26    22   ar
    35     6     1    1
    36     5     3    1
    37    12     7   ar
@<TRIPOS>MOLECULE
*****
 33 37 0 0 0
SMALL
GASTEIGER

@<TRIPOS>ATOM
      1 N         139.1682  140.1752  167.2323 N.3     1  UNL1       -0.2724
      2 C         138.4785  139.2135  166.3105 C.3     1  UNL1        0.0724
      3 C         138.4819  139.8080  164.9334 C.3     1  UNL1        0.0215
      4 C         138.6362  140.6399  163.6948 C.3     1  UNL1        0.0073
      5 C         139.1736  141.1371  165.0040 C.3     1  UNL1        0.0371
      6 C         139.5977  141.3640  166.4248 C.3     1  UNL1        0.0762
      7 C         139.7155  142.4299  164.4702 C.ar    1  UNL1        0.0060
      8 C         141.1413  142.5131  164.0118 C.ar    1  UNL1        0.0018
      9 C         141.6833  143.8060  163.4779 C.ar    1  UNL1        0.0712
     10 C         140.7994  145.0156  163.4026 C.ar    1  UNL1        0.0061
     11 C         139.3736  144.9323  163.8611 C.ar    1  UNL1        0.0293
     12 C         138.8317  143.6395  164.3948 C.ar    1  UNL1        0.1361
     13 F         137.4059  143.5564  164.8533 F       1  UNL1       -0.2045
     14 C         143.1091  143.8892  163.0195 C.3     1  UNL1        0.4186
     15 F         144.5348  143.9723  162.5610 F       1  UNL1       -0.1659
     16 F         143.4237  144.8059  164.1644 F       1  UNL1       -0.1659
     17 F         142.7944  142.9725  161.8746 F       1  UNL1       -0.1659
     18 C         139.3894  139.9819  168.7032 C.3     1  UNL1        0.0730
     19 C         139.7757  141.1486  169.5632 C.3     1  UNL1        0.0294
     20 C         140.9186  141.0241  170.5268 C.3     1  UNL1        0.0666
     21 S         142.3314  141.0984  170.0281 S.3     1  UNL1       -0.0756
     22 C         143.3691  139.7894  166.5246 C.ar    1  UNL1        0.2029
     23 N         143.3475  138.5150  167.3155 N.ar    1  UNL1       -0.1250
     24 N         142.9562  138.8502  168.7241 N.ar    1  UNL1       -0.1220
     25 C         142.7359  140.3318  168.8039 C.ar    1  UNL1        0.1933
     26 N         142.9911  140.9122  167.4445 N.ar    1  UNL1       -0.2860
     27 C         142.8865  142.3611  167.0707 C.3     1  UNL1        0.1341
     28 C         141.7913  138.3584  164.0522 C.3     1  UNL1        0.0556
     29 C         142.9838  139.2605  163.9329 C.ar    1  UNL1        0.1001
     30 N         143.6604  139.6632  162.6562 N.ar    1  UNL1       -0.2085
     31 C         144.8038  140.5699  163.0036 C.ar    1  UNL1        0.2849
     32 O         144.8338  140.7275  164.4949 O.2     1  UNL1       -0.4283
     33 C         143.7090  139.9182  165.0693 C.ar    1  UNL1        0.1964
@<TRIPOS>BOND
     1    28    29    1
     2    29    30   ar
     3    30    31   ar
     4    31    32   ar
     5    32    33   ar
     6    33    22    1
     7    22    23   ar
     8    23    24   ar
     9    24    25   ar
    10    25    21    1
    11    21    20    1
    12    20    19    1
    13    19    18    1
    14    18     1    1
    15     1     2    1
    16     2     3    1
    17     3     4    1
    18     4     5    1
    19     5     7    1
    20     7     8   ar
    21     8     9   ar
    22     9    14    1
    23    14    15    1
    24    14    16    1
    25    14    17    1
    26     9    10   ar
    27    10    11   ar
    28    11    12   ar
    29    12    13    1
    30     5     6    1
    31    25    26   ar
    32    26    27    1
    33    33    29   ar
    34    26    22   ar
    35     6     1    1
    36     5     3    1
    37    12     7   ar
