@<TRIPOS>MOLECULE
*****
 28 31 0 0 0
SMALL
GASTEIGER

@<TRIPOS>ATOM
      1 C         141.5216  140.1190  167.8688 C.3     1  UNL1        0.2121
      2 C         140.4147  140.0573  168.8793 C.3     1  UNL1        0.0704
      3 C         141.0318  139.8486  170.2305 C.3     1  UNL1        0.1214
      4 C         142.5200  139.7813  170.0551 C.2     1  UNL1        0.2896
      5 N         143.5283  139.5819  171.1475 N.pl3   1  UNL1       -0.2501
      6 N         142.8227  139.9484  168.5955 N.2     1  UNL1       -0.0703
      7 H         143.2301  139.4814  172.0803 H       1  UNL1        0.2881
      8 H         144.4884  139.5515  170.9317 H       1  UNL1        0.2881
      9 C         144.1406  140.4244  164.2222 C.ar    1  UNL1        0.1387
     10 C         143.4663  139.1265  164.5548 C.ar    1  UNL1        0.0367
     11 C         142.5933  139.0247  165.7703 C.ar    1  UNL1        0.0032
     12 C         142.3946  140.2208  166.6533 C.ar    1  UNL1        0.0258
     13 C         143.0688  141.5187  166.3207 C.ar    1  UNL1        0.0032
     14 C         143.9418  141.6205  165.1052 C.ar    1  UNL1        0.0367
     15 C         145.2209  141.8544  162.3413 C.3     1  UNL1        0.2525
     16 O         145.0136  140.5262  163.0067 O.3     1  UNL1       -0.4714
     17 C         140.4030  140.3109  166.8880 C.ar    1  UNL1        0.0256
     18 C         139.3338  139.2670  166.7561 C.ar    1  UNL1        0.0000
     19 C         138.2153  139.4589  165.7754 C.ar    1  UNL1       -0.0002
     20 C         138.1659  140.6946  164.9265 C.ar    1  UNL1        0.0001
     21 C         139.2349  141.7384  165.0583 C.ar    1  UNL1        0.0028
     22 C         140.3535  141.5465  166.0391 C.ar    1  UNL1        0.0001
     23 C         139.1854  142.9740  164.2094 C.ar    1  UNL1        0.0384
     24 C         140.3905  143.8612  164.1052 C.ar    1  UNL1        0.1022
     25 N         140.3410  145.0968  163.2563 N.ar    1  UNL1       -0.2224
     26 C         139.0865  145.4454  162.5116 C.ar    1  UNL1        0.1989
     27 N         137.8814  144.5583  162.6157 N.ar    1  UNL1       -0.2224
     28 C         137.9309  143.3226  163.4647 C.ar    1  UNL1        0.1022
@<TRIPOS>BOND
     1    15    16    1
     2    16     9    1
     3     9    10   ar
     4    10    11   ar
     5    11    12   ar
     6    12     1    1
     7     1    17    1
     8    17    18   ar
     9    18    19   ar
    10    19    20   ar
    11    20    21   ar
    12    21    23    1
    13    23    24   ar
    14    24    25   ar
    15    25    26   ar
    16    26    27   ar
    17    27    28   ar
    18    21    22   ar
    19     1     2    1
    20     2     3    1
    21     3     4    1
    22     4     5    1
    23     4     6    2
    24    12    13   ar
    25    13    14   ar
    26    14     9   ar
    27     6     1    1
    28    22    17   ar
    29    28    23   ar
    30     5     7    1
    31     5     8    1
@<TRIPOS>MOLECULE
*****
 28 31 0 0 0
SMALL
GASTEIGER

@<TRIPOS>ATOM
      1 C         140.0889  140.8316  167.7188 C.3     1  UNL1        0.2121
      2 C         140.4176  141.8601  168.7599 C.3     1  UNL1        0.0704
      3 C         139.6612  141.5141  170.0083 C.3     1  UNL1        0.1214
      4 C         138.8651  140.2717  169.7385 C.2     1  UNL1        0.2896
      5 N         137.9630  139.5738  170.7127 N.pl3   1  UNL1       -0.2501
      6 N         139.1294  139.8499  168.3235 N.2     1  UNL1       -0.0703
      7 H         137.8538  139.9294  171.6243 H       1  UNL1        0.2881
      8 H         137.4802  138.7601  170.4406 H       1  UNL1        0.2881
      9 C         139.6872  138.2488  164.0557 C.ar    1  UNL1        0.1387
     10 C         138.5142  139.0465  164.5433 C.ar    1  UNL1        0.0367
     11 C         138.6481  139.9074  165.7643 C.ar    1  UNL1        0.0032
     12 C         139.9550  139.9706  166.4978 C.ar    1  UNL1        0.0258
     13 C         141.1280  139.1729  166.0102 C.ar    1  UNL1        0.0032
     14 C         140.9940  138.3120  164.7892 C.ar    1  UNL1        0.0367
     15 C         139.3139  138.0184  161.4950 C.3     1  UNL1        0.2525
     16 O         139.5532  137.3878  162.8347 O.3     1  UNL1       -0.4714
     17 C         141.0204  141.6332  166.8587 C.ar    1  UNL1        0.0256
     18 C         142.4926  141.6346  167.1463 C.ar    1  UNL1        0.0000
     19 C         143.4240  142.4362  166.2863 C.ar    1  UNL1       -0.0002
     20 C         142.8833  143.2365  165.1386 C.ar    1  UNL1        0.0001
     21 C         141.4112  143.2352  164.8510 C.ar    1  UNL1        0.0028
     22 C         140.4797  142.4336  165.7111 C.ar    1  UNL1        0.0001
     23 C         140.8706  144.0356  163.7034 C.ar    1  UNL1        0.0384
     24 C         141.7705  144.4182  162.5659 C.ar    1  UNL1        0.1022
     25 N         141.2298  145.2185  161.4183 N.ar    1  UNL1       -0.2224
     26 C         139.7892  145.6363  161.4080 C.ar    1  UNL1        0.1989
     27 N         138.8892  145.2536  162.5454 N.ar    1  UNL1       -0.2224
     28 C         139.4299  144.4533  163.6931 C.ar    1  UNL1        0.1022
@<TRIPOS>BOND
     1    15    16    1
     2    16     9    1
     3     9    10   ar
     4    10    11   ar
     5    11    12   ar
     6    12     1    1
     7     1    17    1
     8    17    18   ar
     9    18    19   ar
    10    19    20   ar
    11    20    21   ar
    12    21    23    1
    13    23    24   ar
    14    24    25   ar
    15    25    26   ar
    16    26    27   ar
    17    27    28   ar
    18    21    22   ar
    19     1     2    1
    20     2     3    1
    21     3     4    1
    22     4     5    1
    23     4     6    2
    24    12    13   ar
    25    13    14   ar
    26    14     9   ar
    27     6     1    1
    28    22    17   ar
    29    28    23   ar
    30     5     7    1
    31     5     8    1
@<TRIPOS>MOLECULE
*****
 28 31 0 0 0
SMALL
GASTEIGER

@<TRIPOS>ATOM
      1 C         141.3596  141.7430  168.1213 C.3     1  UNL1        0.2121
      2 C         140.2261  142.0283  169.0613 C.3     1  UNL1        0.0704
      3 C         140.7784  142.7726  170.2408 C.3     1  UNL1        0.1214
      4 C         142.2531  142.9473  170.0296 C.2     1  UNL1        0.2896
      5 N         143.2020  143.6371  170.9643 N.pl3   1  UNL1       -0.2501
      6 N         142.6124  142.3109  168.7197 N.2     1  UNL1       -0.0703
      7 H         142.8692  144.0257  171.8054 H       1  UNL1        0.2881
      8 H         144.1577  143.7013  170.7367 H       1  UNL1        0.2881
      9 C         144.0938  140.4752  164.7795 C.ar    1  UNL1        0.1387
     10 C         143.8428  141.9325  165.0313 C.ar    1  UNL1        0.0367
     11 C         142.9314  142.3550  166.1452 C.ar    1  UNL1        0.0032
     12 C         142.2710  141.3204  167.0074 C.ar    1  UNL1        0.0258
     13 C         142.5220  139.8632  166.7556 C.ar    1  UNL1        0.0032
     14 C         143.4334  139.4406  165.6417 C.ar    1  UNL1        0.0367
     15 C         144.5910  140.2583  162.2387 C.3     1  UNL1        0.2525
     16 O         145.0052  140.0527  163.6656 O.3     1  UNL1       -0.4714
     17 C         140.2974  141.0867  167.2900 C.ar    1  UNL1        0.0256
     18 C         139.5142  139.9349  167.8467 C.ar    1  UNL1        0.0000
     19 C         138.4520  139.2786  167.0154 C.ar    1  UNL1       -0.0002
     20 C         138.1730  139.7742  165.6274 C.ar    1  UNL1        0.0001
     21 C         138.9561  140.9259  165.0707 C.ar    1  UNL1        0.0028
     22 C         140.0183  141.5822  165.9020 C.ar    1  UNL1        0.0001
     23 C         138.6771  141.4215  163.6827 C.ar    1  UNL1        0.0384
     24 C         139.1381  140.6279  162.4962 C.ar    1  UNL1        0.1022
     25 N         138.8591  141.1235  161.1082 N.ar    1  UNL1       -0.2224
     26 C         138.1190  142.4126  160.9066 C.ar    1  UNL1        0.1989
     27 N         137.6580  143.2062  162.0931 N.ar    1  UNL1       -0.2224
     28 C         137.9371  142.7106  163.4812 C.ar    1  UNL1        0.1022
@<TRIPOS>BOND
     1    15    16    1
     2    16     9    1
     3     9    10   ar
     4    10    11   ar
     5    11    12   ar
     6    12     1    1
     7     1    17    1
     8    17    18   ar
     9    18    19   ar
    10    19    20   ar
    11    20    21   ar
    12    21    23    1
    13    23    24   ar
    14    24    25   ar
    15    25    26   ar
    16    26    27   ar
    17    27    28   ar
    18    21    22   ar
    19     1     2    1
    20     2     3    1
    21     3     4    1
    22     4     5    1
    23     4     6    2
    24    12    13   ar
    25    13    14   ar
    26    14     9   ar
    27     6     1    1
    28    22    17   ar
    29    28    23   ar
    30     5     7    1
    31     5     8    1
@<TRIPOS>MOLECULE
*****
 28 31 0 0 0
SMALL
GASTEIGER

@<TRIPOS>ATOM
      1 C         141.6174  141.3482  167.8845 C.3     1  UNL1        0.2121
      2 C         141.7293  140.2478  168.8977 C.3     1  UNL1        0.0704
      3 C         142.8369  140.6014  169.8455 C.3     1  UNL1        0.1214
      4 C         143.4095  141.9203  169.4181 C.2     1  UNL1        0.2896
      5 N         144.5376  142.6495  170.0855 N.pl3   1  UNL1       -0.2501
      6 N         142.6558  142.3819  168.2061 N.2     1  UNL1       -0.0703
      7 H         144.9715  142.2634  170.8804 H       1  UNL1        0.2881
      8 H         144.8442  143.5143  169.7286 H       1  UNL1        0.2881
      9 C         140.5853  144.1224  164.4950 C.ar    1  UNL1        0.1387
     10 C         141.9112  143.4213  164.5132 C.ar    1  UNL1        0.0367
     11 C         142.2552  142.4966  165.6430 C.ar    1  UNL1        0.0032
     12 C         141.2734  142.2730  166.7547 C.ar    1  UNL1        0.0258
     13 C         139.9475  142.9741  166.7366 C.ar    1  UNL1        0.0032
     14 C         139.6034  143.8988  165.6067 C.ar    1  UNL1        0.0367
     15 C         138.8697  145.0126  162.7588 C.3     1  UNL1        0.2525
     16 O         140.2412  145.0471  163.3652 O.3     1  UNL1       -0.4714
     17 C         140.5071  140.5079  167.3267 C.ar    1  UNL1        0.0256
     18 C         139.3772  140.0739  168.2126 C.ar    1  UNL1        0.0000
     19 C         138.2670  139.2337  167.6548 C.ar    1  UNL1       -0.0002
     20 C         138.2866  138.8274  166.2111 C.ar    1  UNL1        0.0001
     21 C         139.4164  139.2614  165.3251 C.ar    1  UNL1        0.0028
     22 C         140.5267  140.1017  165.8829 C.ar    1  UNL1        0.0001
     23 C         139.4360  138.8551  163.8813 C.ar    1  UNL1        0.0384
     24 C         138.3197  139.2712  162.9698 C.ar    1  UNL1        0.1022
     25 N         138.3393  138.8650  161.5261 N.ar    1  UNL1       -0.2224
     26 C         139.4752  138.0425  160.9936 C.ar    1  UNL1        0.1989
     27 N         140.5915  137.6264  161.9051 N.ar    1  UNL1       -0.2224
     28 C         140.5719  138.0327  163.3490 C.ar    1  UNL1        0.1022
@<TRIPOS>BOND
     1    15    16    1
     2    16     9    1
     3     9    10   ar
     4    10    11   ar
     5    11    12   ar
     6    12     1    1
     7     1    17    1
     8    17    18   ar
     9    18    19   ar
    10    19    20   ar
    11    20    21   ar
    12    21    23    1
    13    23    24   ar
    14    24    25   ar
    15    25    26   ar
    16    26    27   ar
    17    27    28   ar
    18    21    22   ar
    19     1     2    1
    20     2     3    1
    21     3     4    1
    22     4     5    1
    23     4     6    2
    24    12    13   ar
    25    13    14   ar
    26    14     9   ar
    27     6     1    1
    28    22    17   ar
    29    28    23   ar
    30     5     7    1
    31     5     8    1
@<TRIPOS>MOLECULE
*****
 28 31 0 0 0
SMALL
GASTEIGER

@<TRIPOS>ATOM
      1 C         142.7985  141.3301  167.8104 C.3     1  UNL1        0.2121
      2 C         143.3416  142.5294  168.5291 C.3     1  UNL1        0.0704
      3 C         143.5574  142.1511  169.9646 C.3     1  UNL1        0.1214
      4 C         143.1476  140.7180  170.1329 C.2     1  UNL1        0.2896
      5 N         143.1980  139.9306  171.4086 N.pl3   1  UNL1       -0.2501
      6 N         142.6786  140.2106  168.8015 N.2     1  UNL1       -0.0703
      7 H         143.5232  140.3539  172.2358 H       1  UNL1        0.2881
      8 H         142.9058  138.9905  171.4187 H       1  UNL1        0.2881
      9 C         141.1732  138.3019  164.9054 C.ar    1  UNL1        0.1387
     10 C         142.6406  138.6126  164.9224 C.ar    1  UNL1        0.0367
     11 C         143.1823  139.6220  165.8907 C.ar    1  UNL1        0.0032
     12 C         142.2567  140.3207  166.8421 C.ar    1  UNL1        0.0258
     13 C         140.7894  140.0100  166.8251 C.ar    1  UNL1        0.0032
     14 C         140.2476  139.0006  165.8567 C.ar    1  UNL1        0.0367
     15 C         140.9370  137.4177  162.4739 C.3     1  UNL1        0.2525
     16 O         140.6315  137.2926  163.9371 O.3     1  UNL1       -0.4714
     17 C         142.8052  142.2385  166.6168 C.ar    1  UNL1        0.0256
     18 C         144.1006  142.7959  166.1056 C.ar    1  UNL1        0.0000
     19 C         144.1072  143.7043  164.9121 C.ar    1  UNL1       -0.0002
     20 C         142.8185  144.0554  164.2296 C.ar    1  UNL1        0.0001
     21 C         141.5231  143.4981  164.7407 C.ar    1  UNL1        0.0028
     22 C         141.5164  142.5897  165.9343 C.ar    1  UNL1        0.0001
     23 C         140.2343  143.8493  164.0582 C.ar    1  UNL1        0.0384
     24 C         140.2032  144.9414  163.0304 C.ar    1  UNL1        0.1022
     25 N         138.9145  145.2925  162.3480 N.ar    1  UNL1       -0.2224
     26 C         137.6567  144.5515  162.6932 C.ar    1  UNL1        0.1989
     27 N         137.6878  143.4594  163.7210 N.ar    1  UNL1       -0.2224
     28 C         138.9767  143.1083  164.4035 C.ar    1  UNL1        0.1022
@<TRIPOS>BOND
     1    15    16    1
     2    16     9    1
     3     9    10   ar
     4    10    11   ar
     5    11    12   ar
     6    12     1    1
     7     1    17    1
     8    17    18   ar
     9    18    19   ar
    10    19    20   ar
    11    20    21   ar
    12    21    23    1
    13    23    24   ar
    14    24    25   ar
    15    25    26   ar
    16    26    27   ar
    17    27    28   ar
    18    21    22   ar
    19     1     2    1
    20     2     3    1
    21     3     4    1
    22     4     5    1
    23     4     6    2
    24    12    13   ar
    25    13    14   ar
    26    14     9   ar
    27     6     1    1
    28    22    17   ar
    29    28    23   ar
    30     5     7    1
    31     5     8    1
@<TRIPOS>MOLECULE
*****
 28 31 0 0 0
SMALL
GASTEIGER

@<TRIPOS>ATOM
      1 C         141.4829  141.0974  168.2270 C.3     1  UNL1        0.2121
      2 C         142.6500  140.8252  169.1290 C.3     1  UNL1        0.0704
      3 C         142.3101  141.3422  170.4955 C.3     1  UNL1        0.1214
      4 C         140.9329  141.9338  170.4380 C.2     1  UNL1        0.2896
      5 N         140.1964  142.5657  171.5817 N.pl3   1  UNL1       -0.2501
      6 N         140.4216  141.7825  169.0360 N.2     1  UNL1       -0.0703
      7 H         140.6181  142.6184  172.4697 H       1  UNL1        0.2881
      8 H         139.2912  142.9278  171.4443 H       1  UNL1        0.2881
      9 C         138.5174  141.5018  164.8666 C.ar    1  UNL1        0.1387
     10 C         139.3184  142.6910  165.3072 C.ar    1  UNL1        0.0367
     11 C         140.3069  142.5562  166.4273 C.ar    1  UNL1        0.0032
     12 C         140.4944  141.2322  167.1068 C.ar    1  UNL1        0.0258
     13 C         139.6934  140.0430  166.6662 C.ar    1  UNL1        0.0032
     14 C         138.7049  140.1778  165.5461 C.ar    1  UNL1        0.0367
     15 C         137.6607  142.7596  162.7609 C.3     1  UNL1        0.2525
     16 O         137.5289  141.6365  163.7464 O.3     1  UNL1       -0.4714
     17 C         142.3374  140.4404  167.1838 C.ar    1  UNL1        0.0256
     18 C         142.8151  139.0325  167.3832 C.ar    1  UNL1        0.0000
     19 C         143.6696  138.3756  166.3401 C.ar    1  UNL1       -0.0002
     20 C         144.0465  139.1265  165.0975 C.ar    1  UNL1        0.0001
     21 C         143.5689  140.5344  164.8981 C.ar    1  UNL1        0.0028
     22 C         142.7143  141.1913  165.9412 C.ar    1  UNL1        0.0001
     23 C         143.9458  141.2853  163.6555 C.ar    1  UNL1        0.0384
     24 C         144.1751  142.7665  163.7147 C.ar    1  UNL1        0.1022
     25 N         144.5520  143.5174  162.4722 N.ar    1  UNL1       -0.2224
     26 C         144.6997  142.7871  161.1702 C.ar    1  UNL1        0.1989
     27 N         144.4704  141.3059  161.1109 N.ar    1  UNL1       -0.2224
     28 C         144.0935  140.5550  162.3536 C.ar    1  UNL1        0.1022
@<TRIPOS>BOND
     1    15    16    1
     2    16     9    1
     3     9    10   ar
     4    10    11   ar
     5    11    12   ar
     6    12     1    1
     7     1    17    1
     8    17    18   ar
     9    18    19   ar
    10    19    20   ar
    11    20    21   ar
    12    21    23    1
    13    23    24   ar
    14    24    25   ar
    15    25    26   ar
    16    26    27   ar
    17    27    28   ar
    18    21    22   ar
    19     1     2    1
    20     2     3    1
    21     3     4    1
    22     4     5    1
    23     4     6    2
    24    12    13   ar
    25    13    14   ar
    26    14     9   ar
    27     6     1    1
    28    22    17   ar
    29    28    23   ar
    30     5     7    1
    31     5     8    1
@<TRIPOS>MOLECULE
*****
 28 31 0 0 0
SMALL
GASTEIGER

@<TRIPOS>ATOM
      1 C         139.4351  142.7410  164.2041 C.3     1  UNL1        0.2121
      2 C         137.9795  143.0177  164.4379 C.3     1  UNL1        0.0704
      3 C         137.5821  144.1740  163.5688 C.3     1  UNL1        0.1214
      4 C         138.7921  144.6117  162.7979 C.2     1  UNL1        0.2896
      5 N         138.8472  145.7375  161.8081 N.pl3   1  UNL1       -0.2501
      6 N         139.9373  143.7261  163.1905 N.2     1  UNL1       -0.0703
      7 H         138.0379  146.2642  161.6162 H       1  UNL1        0.2881
      8 H         139.6926  145.9496  161.3504 H       1  UNL1        0.2881
      9 C         143.6721  141.2267  164.1354 C.ar    1  UNL1        0.1387
     10 C         142.5791  140.4263  163.4915 C.ar    1  UNL1        0.0367
     11 C         141.1667  140.9311  163.5144 C.ar    1  UNL1        0.0032
     12 C         140.8475  142.2362  164.1812 C.ar    1  UNL1        0.0258
     13 C         141.9405  143.0366  164.8251 C.ar    1  UNL1        0.0032
     14 C         143.3528  142.5318  164.8022 C.ar    1  UNL1        0.0367
     15 C         145.3781  139.2980  164.4816 C.3     1  UNL1        0.2525
     16 O         145.0844  140.7219  164.1125 O.3     1  UNL1       -0.4714
     17 C         139.2282  141.6503  165.2129 C.ar    1  UNL1        0.0256
     18 C         138.3032  140.5101  164.9056 C.ar    1  UNL1        0.0000
     19 C         138.0963  139.4195  165.9144 C.ar    1  UNL1       -0.0002
     20 C         138.8144  139.4691  167.2304 C.ar    1  UNL1        0.0001
     21 C         139.7393  140.6092  167.5377 C.ar    1  UNL1        0.0028
     22 C         139.9462  141.6999  166.5289 C.ar    1  UNL1        0.0001
     23 C         140.4573  140.6587  168.8537 C.ar    1  UNL1        0.0384
     24 C         139.7946  141.2815  170.0467 C.ar    1  UNL1        0.1022
     25 N         140.5127  141.3310  171.3627 N.ar    1  UNL1       -0.2224
     26 C         141.8934  140.7578  171.4859 C.ar    1  UNL1        0.1989
     27 N         142.5561  140.1350  170.2929 N.ar    1  UNL1       -0.2224
     28 C         141.8380  140.0855  168.9768 C.ar    1  UNL1        0.1022
@<TRIPOS>BOND
     1    15    16    1
     2    16     9    1
     3     9    10   ar
     4    10    11   ar
     5    11    12   ar
     6    12     1    1
     7     1    17    1
     8    17    18   ar
     9    18    19   ar
    10    19    20   ar
    11    20    21   ar
    12    21    23    1
    13    23    24   ar
    14    24    25   ar
    15    25    26   ar
    16    26    27   ar
    17    27    28   ar
    18    21    22   ar
    19     1     2    1
    20     2     3    1
    21     3     4    1
    22     4     5    1
    23     4     6    2
    24    12    13   ar
    25    13    14   ar
    26    14     9   ar
    27     6     1    1
    28    22    17   ar
    29    28    23   ar
    30     5     7    1
    31     5     8    1
@<TRIPOS>MOLECULE
*****
 28 31 0 0 0
SMALL
GASTEIGER

@<TRIPOS>ATOM
      1 C         141.1826  142.4878  167.7026 C.3     1  UNL1        0.2121
      2 C         140.1139  143.2749  168.4015 C.3     1  UNL1        0.0704
      3 C         140.5419  143.4751  169.8252 C.3     1  UNL1        0.1214
      4 C         141.8750  142.8118  170.0061 C.2     1  UNL1        0.2896
      5 N         142.6721  142.7666  171.2760 N.pl3   1  UNL1       -0.2501
      6 N         142.2710  142.2016  168.6944 N.2     1  UNL1       -0.0703
      7 H         142.3263  143.1992  172.0899 H       1  UNL1        0.2881
      8 H         143.5412  142.3044  171.2955 H       1  UNL1        0.2881
      9 C         143.8213  140.2063  164.8597 C.ar    1  UNL1        0.1387
     10 C         143.6863  141.6944  164.7275 C.ar    1  UNL1        0.0367
     11 C         142.8068  142.4548  165.6751 C.ar    1  UNL1        0.0032
     12 C         142.0622  141.7273  166.7550 C.ar    1  UNL1        0.0258
     13 C         142.1972  140.2393  166.8873 C.ar    1  UNL1        0.0032
     14 C         143.0767  139.4788  165.9396 C.ar    1  UNL1        0.0367
     15 C         144.1189  138.8448  162.6671 C.3     1  UNL1        0.2525
     16 O         144.7009  139.4458  163.9121 O.3     1  UNL1       -0.4714
     17 C         140.2781  142.6151  166.5128 C.ar    1  UNL1        0.0256
     18 C         139.7134  143.9537  166.1397 C.ar    1  UNL1        0.0000
     19 C         138.8090  144.0809  164.9499 C.ar    1  UNL1       -0.0002
     20 C         138.4691  142.8695  164.1332 C.ar    1  UNL1        0.0001
     21 C         139.0338  141.5309  164.5062 C.ar    1  UNL1        0.0028
     22 C         139.9383  141.4037  165.6961 C.ar    1  UNL1        0.0001
     23 C         138.6939  140.3195  163.6895 C.ar    1  UNL1        0.0384
     24 C         137.8530  140.4589  162.4552 C.ar    1  UNL1        0.1022
     25 N         137.5132  139.2475  161.6385 N.ar    1  UNL1       -0.2224
     26 C         138.0143  137.8967  162.0561 C.ar    1  UNL1        0.1989
     27 N         138.8553  137.7573  163.2903 N.ar    1  UNL1       -0.2224
     28 C         139.1951  138.9688  164.1071 C.ar    1  UNL1        0.1022
@<TRIPOS>BOND
     1    15    16    1
     2    16     9    1
     3     9    10   ar
     4    10    11   ar
     5    11    12   ar
     6    12     1    1
     7     1    17    1
     8    17    18   ar
     9    18    19   ar
    10    19    20   ar
    11    20    21   ar
    12    21    23    1
    13    23    24   ar
    14    24    25   ar
    15    25    26   ar
    16    26    27   ar
    17    27    28   ar
    18    21    22   ar
    19     1     2    1
    20     2     3    1
    21     3     4    1
    22     4     5    1
    23     4     6    2
    24    12    13   ar
    25    13    14   ar
    26    14     9   ar
    27     6     1    1
    28    22    17   ar
    29    28    23   ar
    30     5     7    1
    31     5     8    1
@<TRIPOS>MOLECULE
*****
 28 31 0 0 0
SMALL
GASTEIGER

@<TRIPOS>ATOM
      1 C         140.1159  141.3071  167.5749 C.3     1  UNL1        0.2121
      2 C         140.4305  142.4711  168.4672 C.3     1  UNL1        0.0704
      3 C         140.3615  141.9973  169.8888 C.3     1  UNL1        0.1214
      4 C         140.0044  140.5405  169.8750 C.2     1  UNL1        0.2896
      5 N         139.8298  139.6642  171.0798 N.pl3   1  UNL1       -0.2501
      6 N         139.8526  140.1140  168.4450 N.2     1  UNL1       -0.0703
      7 H         139.9512  140.0383  171.9824 H       1  UNL1        0.2881
      8 H         139.5937  138.7150  170.9681 H       1  UNL1        0.2881
      9 C         139.3019  138.4380  164.2051 C.ar    1  UNL1        0.1387
     10 C         138.2955  139.4956  164.5493 C.ar    1  UNL1        0.0367
     11 C         138.5668  140.4520  165.6726 C.ar    1  UNL1        0.0032
     12 C         139.8446  140.3507  166.4517 C.ar    1  UNL1        0.0258
     13 C         140.8510  139.2931  166.1075 C.ar    1  UNL1        0.0032
     14 C         140.5797  138.3368  164.9842 C.ar    1  UNL1        0.0367
     15 C         138.9776  137.9806  161.6683 C.3     1  UNL1        0.2525
     16 O         139.0306  137.4816  163.0819 O.3     1  UNL1       -0.4714
     17 C         140.3225  142.3003  166.4700 C.ar    1  UNL1        0.0256
     18 C         139.4202  143.4931  166.3553 C.ar    1  UNL1        0.0000
     19 C         139.6268  144.4863  165.2504 C.ar    1  UNL1       -0.0002
     20 C         140.7357  144.2867  164.2602 C.ar    1  UNL1        0.0001
     21 C         141.6380  143.0940  164.3748 C.ar    1  UNL1        0.0028
     22 C         141.4314  142.1008  165.4798 C.ar    1  UNL1        0.0001
     23 C         142.7468  142.8944  163.3846 C.ar    1  UNL1        0.0384
     24 C         143.1478  141.5077  162.9770 C.ar    1  UNL1        0.1022
     25 N         144.2567  141.3081  161.9868 N.ar    1  UNL1       -0.2224
     26 C         144.9646  142.4953  161.4041 C.ar    1  UNL1        0.1989
     27 N         144.5636  143.8821  161.8116 N.ar    1  UNL1       -0.2224
     28 C         143.4547  144.0816  162.8019 C.ar    1  UNL1        0.1022
@<TRIPOS>BOND
     1    15    16    1
     2    16     9    1
     3     9    10   ar
     4    10    11   ar
     5    11    12   ar
     6    12     1    1
     7     1    17    1
     8    17    18   ar
     9    18    19   ar
    10    19    20   ar
    11    20    21   ar
    12    21    23    1
    13    23    24   ar
    14    24    25   ar
    15    25    26   ar
    16    26    27   ar
    17    27    28   ar
    18    21    22   ar
    19     1     2    1
    20     2     3    1
    21     3     4    1
    22     4     5    1
    23     4     6    2
    24    12    13   ar
    25    13    14   ar
    26    14     9   ar
    27     6     1    1
    28    22    17   ar
    29    28    23   ar
    30     5     7    1
    31     5     8    1
