@<TRIPOS>MOLECULE
*****
 30 32 0 0 0
SMALL
GASTEIGER

@<TRIPOS>ATOM
      1 C         138.8587  138.9039  165.8327 C.3     1  UNL1        0.0337
      2 C         139.0727  140.3814  165.6869 C.3     1  UNL1        0.1467
      3 N         138.0733  140.2572  164.5752 N.am    1  UNL1       -0.2806
      4 C         137.8692  141.6193  163.9811 C.2     1  UNL1        0.3106
      5 O         136.9528  141.9563  162.8425 O.2     1  UNL1       -0.2521
      6 N         138.7424  142.5853  164.7256 N.am    1  UNL1       -0.2049
      7 C         139.4862  141.8202  165.7798 C.2     1  UNL1        0.2527
      8 O         140.4707  142.3934  166.7557 O.2     1  UNL1       -0.2723
      9 H         137.6293  139.4274  164.2862 H       1  UNL1        0.1516
     10 C         140.0273  140.1966  166.8291 C.ar    1  UNL1        0.0021
     11 C         139.5354  140.3017  168.2422 C.ar    1  UNL1       -0.0009
     12 C         140.4901  140.1170  169.3843 C.ar    1  UNL1        0.0196
     13 C         141.9366  139.8271  169.1133 C.ar    1  UNL1        0.1217
     14 C         142.4285  139.7220  167.7002 C.ar    1  UNL1        0.0196
     15 C         141.4739  139.9067  166.5581 C.ar    1  UNL1       -0.0009
     16 S         142.8913  139.6423  170.2555 S.O2    1  UNL1        0.0572
     17 N         143.8459  139.4576  171.3976 N.3     1  UNL1       -0.2035
     18 O         143.0314  138.1909  169.9037 O.2     1  UNL1       -0.1532
     19 O         142.7512  141.0937  170.6073 O.2     1  UNL1       -0.1532
     20 H         144.1521  138.4852  171.4310 H       1  UNL1        0.1442
     21 H         143.3797  139.6975  172.2726 H       1  UNL1        0.1442
     22 C         138.8525  144.0579  164.4621 C.3     1  UNL1        0.1719
     23 C         139.5189  144.5481  163.2109 C.2     1  UNL1        0.1995
     24 O         138.6908  145.0815  162.0796 O.2     1  UNL1       -0.2890
     25 C         141.0135  144.5049  163.0909 C.ar    1  UNL1        0.0667
     26 C         141.9831  145.3771  163.8319 C.ar    1  UNL1        0.0108
     27 C         143.3697  144.9932  163.4079 C.ar    1  UNL1        0.0186
     28 C         143.2572  143.8837  162.4047 C.ar    1  UNL1        0.0870
     29 CL        144.4001  143.1966  161.7181 Cl      1  UNL1       -0.0752
     30 S         141.8010  143.5819  162.2089 S.2     1  UNL1       -0.0726
@<TRIPOS>BOND
     1     1     2    1
     2     2    10    1
     3    10    11   ar
     4    11    12   ar
     5    12    13   ar
     6    13    16    1
     7    16    17    1
     8    16    18    2
     9    16    19    2
    10    13    14   ar
    11    14    15   ar
    12     2     3    1
    13     3     4   am
    14     4     5    2
    15     4     6   am
    16     6    22    1
    17    22    23    1
    18    23    24    2
    19    23    25    1
    20    25    26   ar
    21    26    27   ar
    22    27    28   ar
    23    28    29    1
    24    28    30   ar
    25     6     7   am
    26     7     8    2
    27     7     2    1
    28    15    10   ar
    29    30    25   ar
    30    17    20    1
    31    17    21    1
    32     3     9    1
@<TRIPOS>MOLECULE
*****
 30 32 0 0 0
SMALL
GASTEIGER

@<TRIPOS>ATOM
      1 C         138.9581  138.7816  165.7620 C.3     1  UNL1        0.0337
      2 C         139.1149  140.2675  165.6304 C.3     1  UNL1        0.1467
      3 N         138.1411  140.1120  164.5002 N.am    1  UNL1       -0.2806
      4 C         137.8928  141.4694  163.9121 C.2     1  UNL1        0.3106
      5 O         136.9838  141.7781  162.7596 O.2     1  UNL1       -0.2521
      6 N         138.7132  142.4638  164.6789 N.am    1  UNL1       -0.2049
      7 C         139.4685  141.7210  165.7409 C.2     1  UNL1        0.2527
      8 O         140.4118  142.3257  166.7383 O.2     1  UNL1       -0.2723
      9 H         137.7360  139.2673  164.1974 H       1  UNL1        0.1516
     10 C         140.0560  140.1124  166.7882 C.ar    1  UNL1        0.0021
     11 C         141.5154  139.8698  166.5411 C.ar    1  UNL1       -0.0009
     12 C         142.4564  139.7146  167.6989 C.ar    1  UNL1        0.0196
     13 C         141.9379  139.8021  169.1037 C.ar    1  UNL1        0.1217
     14 C         140.4785  140.0447  169.3508 C.ar    1  UNL1        0.0196
     15 C         139.5375  140.1998  168.1930 C.ar    1  UNL1       -0.0009
     16 S         142.8790  139.6469  170.2615 S.O2    1  UNL1        0.0572
     17 N         143.8200  139.4917  171.4192 N.3     1  UNL1       -0.2035
     18 O         142.6915  141.0943  170.6079 O.2     1  UNL1       -0.1532
     19 O         143.0665  138.1996  169.9151 O.2     1  UNL1       -0.1532
     20 H         143.9131  140.3845  171.9037 H       1  UNL1        0.1442
     21 H         144.7336  139.1937  171.0772 H       1  UNL1        0.1442
     22 C         138.7685  143.9416  164.4279 C.3     1  UNL1        0.1719
     23 C         139.4361  144.4679  163.1919 C.2     1  UNL1        0.1995
     24 O         138.6072  144.9952  162.0584 O.2     1  UNL1       -0.2890
     25 C         140.9326  144.4667  163.0895 C.ar    1  UNL1        0.0667
     26 C         141.8672  145.3834  163.8218 C.ar    1  UNL1        0.0108
     27 C         143.2694  145.0319  163.4217 C.ar    1  UNL1        0.0186
     28 C         143.2016  143.8980  162.4422 C.ar    1  UNL1        0.0870
     29 CL        144.3723  143.2306  161.7836 Cl      1  UNL1       -0.0752
     30 S         141.7574  143.5487  162.2369 S.2     1  UNL1       -0.0726
@<TRIPOS>BOND
     1     1     2    1
     2     2    10    1
     3    10    11   ar
     4    11    12   ar
     5    12    13   ar
     6    13    16    1
     7    16    17    1
     8    16    18    2
     9    16    19    2
    10    13    14   ar
    11    14    15   ar
    12     2     3    1
    13     3     4   am
    14     4     5    2
    15     4     6   am
    16     6    22    1
    17    22    23    1
    18    23    24    2
    19    23    25    1
    20    25    26   ar
    21    26    27   ar
    22    27    28   ar
    23    28    29    1
    24    28    30   ar
    25     6     7   am
    26     7     8    2
    27     7     2    1
    28    15    10   ar
    29    30    25   ar
    30    17    20    1
    31    17    21    1
    32     3     9    1
@<TRIPOS>MOLECULE
*****
 30 32 0 0 0
SMALL
GASTEIGER

@<TRIPOS>ATOM
      1 C         143.6773  138.6868  166.0041 C.3     1  UNL1        0.0337
      2 C         142.2259  139.0220  165.8275 C.3     1  UNL1        0.1467
      3 N         142.2749  137.9702  164.7592 N.am    1  UNL1       -0.2806
      4 C         140.9071  137.8607  164.1535 C.2     1  UNL1        0.3106
      5 O         140.5044  136.9304  163.0479 O.2     1  UNL1       -0.2521
      6 N         140.0127  138.8448  164.8474 N.am    1  UNL1       -0.2049
      7 C         140.8278  139.5626  165.8820 C.2     1  UNL1        0.2527
      8 O         140.3317  140.6330  166.8085 O.2     1  UNL1       -0.2723
      9 H         143.0660  137.4441  164.5010 H       1  UNL1        0.1516
     10 C         142.4804  140.0038  166.9328 C.ar    1  UNL1        0.0021
     11 C         142.8475  141.4212  166.6071 C.ar    1  UNL1       -0.0009
     12 C         143.1019  142.4029  167.7123 C.ar    1  UNL1        0.0196
     13 C         142.9892  141.9671  169.1432 C.ar    1  UNL1        0.1217
     14 C         142.6220  140.5497  169.4689 C.ar    1  UNL1        0.0196
     15 C         142.3676  139.5681  168.3636 C.ar    1  UNL1       -0.0009
     16 S         143.2436  142.9489  170.2484 S.O2    1  UNL1        0.0572
     17 N         143.4981  143.9306  171.3536 N.3     1  UNL1       -0.2035
     18 O         141.7753  142.9869  170.5528 O.2     1  UNL1       -0.1532
     19 O         144.7119  142.9109  169.9441 O.2     1  UNL1       -0.1532
     20 H         142.6144  144.1775  171.7992 H       1  UNL1        0.1442
     21 H         143.9314  144.7703  170.9694 H       1  UNL1        0.1442
     22 C         138.5585  139.0714  164.5575 C.3     1  UNL1        0.1719
     23 C         138.1488  139.8669  163.3536 C.2     1  UNL1        0.1995
     24 O         137.8009  139.1658  162.0741 O.2     1  UNL1       -0.2890
     25 C         138.0872  141.3638  163.4293 C.ar    1  UNL1        0.0667
     26 C         137.8239  142.2945  162.2829 C.ar    1  UNL1        0.0108
     27 C         137.8519  143.6986  162.8098 C.ar    1  UNL1        0.0186
     28 C         138.1326  143.6357  164.2819 C.ar    1  UNL1        0.0870
     29 CL        138.2477  144.8097  165.2084 Cl      1  UNL1       -0.0752
     30 S         138.2780  142.1928  164.6648 S.2     1  UNL1       -0.0726
@<TRIPOS>BOND
     1     1     2    1
     2     2    10    1
     3    10    11   ar
     4    11    12   ar
     5    12    13   ar
     6    13    16    1
     7    16    17    1
     8    16    18    2
     9    16    19    2
    10    13    14   ar
    11    14    15   ar
    12     2     3    1
    13     3     4   am
    14     4     5    2
    15     4     6   am
    16     6    22    1
    17    22    23    1
    18    23    24    2
    19    23    25    1
    20    25    26   ar
    21    26    27   ar
    22    27    28   ar
    23    28    29    1
    24    28    30   ar
    25     6     7   am
    26     7     8    2
    27     7     2    1
    28    15    10   ar
    29    30    25   ar
    30    17    20    1
    31    17    21    1
    32     3     9    1
@<TRIPOS>MOLECULE
*****
 30 32 0 0 0
SMALL
GASTEIGER

@<TRIPOS>ATOM
      1 C         138.3400  141.1173  164.8194 C.3     1  UNL1        0.0337
      2 C         139.6008  140.3113  164.7156 C.3     1  UNL1        0.1467
      3 N         139.1594  140.0952  163.2984 N.am    1  UNL1       -0.2806
      4 C         140.1846  139.2361  162.6196 C.2     1  UNL1        0.3106
      5 O         140.1423  138.7730  161.1935 O.2     1  UNL1       -0.2521
      6 N         141.2596  138.9212  163.6173 N.am    1  UNL1       -0.2049
      7 C         140.8987  139.5858  164.9127 C.2     1  UNL1        0.2527
      8 O         141.6960  139.5339  166.1823 O.2     1  UNL1       -0.2723
      9 H         138.3406  140.4541  162.8862 H       1  UNL1        0.1516
     10 C         139.7785  140.6960  166.1546 C.ar    1  UNL1        0.0021
     11 C         140.4411  141.9946  166.5074 C.ar    1  UNL1       -0.0009
     12 C         140.6188  142.3793  167.9463 C.ar    1  UNL1        0.0196
     13 C         140.1339  141.4653  169.0324 C.ar    1  UNL1        0.1217
     14 C         139.4713  140.1666  168.6795 C.ar    1  UNL1        0.0196
     15 C         139.2936  139.7820  167.2406 C.ar    1  UNL1       -0.0009
     16 S         140.3116  141.8499  170.4713 S.O2    1  UNL1        0.0572
     17 N         140.4894  142.2346  171.9102 N.3     1  UNL1       -0.2035
     18 O         139.7498  140.5252  170.8949 O.2     1  UNL1       -0.1532
     19 O         140.8735  143.1746  170.0477 O.2     1  UNL1       -0.1532
     20 H         140.1695  141.4725  172.5079 H       1  UNL1        0.1442
     21 H         139.9439  143.0736  172.1077 H       1  UNL1        0.1442
     22 C         142.4810  138.0881  163.3640 C.3     1  UNL1        0.1719
     23 C         143.6073  138.6394  162.5409 C.2     1  UNL1        0.1995
     24 O         144.1770  137.8317  161.4125 O.2     1  UNL1       -0.2890
     25 C         144.1640  139.9984  162.8462 C.ar    1  UNL1        0.0667
     26 C         145.1866  140.3168  163.8964 C.ar    1  UNL1        0.0108
     27 C         145.4504  141.7928  163.8542 C.ar    1  UNL1        0.0186
     28 C         144.5910  142.3867  162.7778 C.ar    1  UNL1        0.0870
     29 CL        144.5361  143.8351  162.3922 Cl      1  UNL1       -0.0752
     30 S         143.7959  141.2777  162.1548 S.2     1  UNL1       -0.0726
@<TRIPOS>BOND
     1     1     2    1
     2     2    10    1
     3    10    11   ar
     4    11    12   ar
     5    12    13   ar
     6    13    16    1
     7    16    17    1
     8    16    18    2
     9    16    19    2
    10    13    14   ar
    11    14    15   ar
    12     2     3    1
    13     3     4   am
    14     4     5    2
    15     4     6   am
    16     6    22    1
    17    22    23    1
    18    23    24    2
    19    23    25    1
    20    25    26   ar
    21    26    27   ar
    22    27    28   ar
    23    28    29    1
    24    28    30   ar
    25     6     7   am
    26     7     8    2
    27     7     2    1
    28    15    10   ar
    29    30    25   ar
    30    17    20    1
    31    17    21    1
    32     3     9    1
@<TRIPOS>MOLECULE
*****
 30 32 0 0 0
SMALL
GASTEIGER

@<TRIPOS>ATOM
      1 C         143.6403  140.9909  164.8961 C.3     1  UNL1        0.0337
      2 C         142.6707  142.1248  164.7409 C.3     1  UNL1        0.1467
      3 N         143.4288  142.3923  163.4745 N.am    1  UNL1       -0.2806
      4 C         142.8116  143.5861  162.8082 C.2     1  UNL1        0.3106
      5 O         143.2559  144.2015  161.5145 O.2     1  UNL1       -0.2521
      6 N         141.6722  144.0564  163.6628 N.am    1  UNL1       -0.2049
      7 C         141.5851  143.1533  164.8573 C.2     1  UNL1        0.2527
      8 O         140.5874  143.2600  165.9724 O.2     1  UNL1       -0.2723
      9 H         144.1966  141.8751  163.1395 H       1  UNL1        0.1516
     10 C         142.1154  141.6202  166.0398 C.ar    1  UNL1        0.0021
     11 C         142.6751  142.1189  167.3390 C.ar    1  UNL1       -0.0009
     12 C         142.1198  141.6143  168.6378 C.ar    1  UNL1        0.0196
     13 C         141.0046  140.6111  168.6374 C.ar    1  UNL1        0.1217
     14 C         140.4449  140.1124  167.3382 C.ar    1  UNL1        0.0196
     15 C         141.0002  140.6170  166.0394 C.ar    1  UNL1       -0.0009
     16 S         140.4493  140.1065  169.9363 S.O2    1  UNL1        0.0572
     17 N         139.8940  139.6019  171.2351 N.3     1  UNL1       -0.2035
     18 O         139.1625  139.7559  169.2500 O.2     1  UNL1       -0.1532
     19 O         141.7361  140.4571  170.6226 O.2     1  UNL1       -0.1532
     20 H         138.9431  139.2628  171.0895 H       1  UNL1        0.1442
     21 H         139.8839  140.3597  171.9178 H       1  UNL1        0.1442
     22 C         140.7769  145.2247  163.3737 C.3     1  UNL1        0.1719
     23 C         139.5656  145.0450  162.5074 C.2     1  UNL1        0.1995
     24 O         139.1277  146.1494  161.5918 O.2     1  UNL1       -0.2890
     25 C         138.7921  143.7608  162.5569 C.ar    1  UNL1        0.0667
     26 C         137.8911  143.3165  163.6708 C.ar    1  UNL1        0.0108
     27 C         137.3260  141.9764  163.3035 C.ar    1  UNL1        0.0186
     28 C         137.8777  141.5925  161.9625 C.ar    1  UNL1        0.0870
     29 CL        137.5762  140.3279  161.2144 Cl      1  UNL1       -0.0752
     30 S         138.7838  142.6952  161.5011 S.2     1  UNL1       -0.0726
@<TRIPOS>BOND
     1     1     2    1
     2     2    10    1
     3    10    11   ar
     4    11    12   ar
     5    12    13   ar
     6    13    16    1
     7    16    17    1
     8    16    18    2
     9    16    19    2
    10    13    14   ar
    11    14    15   ar
    12     2     3    1
    13     3     4   am
    14     4     5    2
    15     4     6   am
    16     6    22    1
    17    22    23    1
    18    23    24    2
    19    23    25    1
    20    25    26   ar
    21    26    27   ar
    22    27    28   ar
    23    28    29    1
    24    28    30   ar
    25     6     7   am
    26     7     8    2
    27     7     2    1
    28    15    10   ar
    29    30    25   ar
    30    17    20    1
    31    17    21    1
    32     3     9    1
@<TRIPOS>MOLECULE
*****
 30 32 0 0 0
SMALL
GASTEIGER

@<TRIPOS>ATOM
      1 C         138.6230  138.9854  166.0846 C.3     1  UNL1        0.0337
      2 C         138.9842  140.4124  165.7962 C.3     1  UNL1        0.1467
      3 N         137.9324  140.2988  164.7327 N.am    1  UNL1       -0.2806
      4 C         137.8477  141.6170  164.0220 C.2     1  UNL1        0.3106
      5 O         136.9255  141.9487  162.8865 O.2     1  UNL1       -0.2521
      6 N         138.8470  142.5453  164.6462 N.am    1  UNL1       -0.2049
      7 C         139.5494  141.8008  165.7427 C.2     1  UNL1        0.2527
      8 O         140.6277  142.3486  166.6300 O.2     1  UNL1       -0.2723
      9 H         137.3926  139.4994  164.5358 H       1  UNL1        0.1516
     10 C         139.9604  140.2276  166.9200 C.ar    1  UNL1        0.0021
     11 C         139.5136  140.4132  168.3397 C.ar    1  UNL1       -0.0009
     12 C         140.4898  140.2284  169.4634 C.ar    1  UNL1        0.0196
     13 C         141.9129  139.8580  169.1674 C.ar    1  UNL1        0.1217
     14 C         142.3597  139.6724  167.7476 C.ar    1  UNL1        0.0196
     15 C         141.3835  139.8572  166.6239 C.ar    1  UNL1       -0.0009
     16 S         142.8892  139.6732  170.2912 S.O2    1  UNL1        0.0572
     17 N         143.8654  139.4885  171.4149 N.3     1  UNL1       -0.2035
     18 O         143.1590  138.2728  169.8265 O.2     1  UNL1       -0.1532
     19 O         142.6193  141.0737  170.7558 O.2     1  UNL1       -0.1532
     20 H         144.2596  138.5488  171.3718 H       1  UNL1        0.1442
     21 H         143.3858  139.6154  172.3062 H       1  UNL1        0.1442
     22 C         139.0995  143.9682  164.2444 C.3     1  UNL1        0.1719
     23 C         140.3482  144.3252  163.4937 C.2     1  UNL1        0.1995
     24 O         141.5878  144.7160  164.2425 O.2     1  UNL1       -0.2890
     25 C         140.3572  144.2913  161.9941 C.ar    1  UNL1        0.0667
     26 C         140.4580  143.0621  161.1404 C.ar    1  UNL1        0.0108
     27 C         140.4301  143.4918  159.7036 C.ar    1  UNL1        0.0186
     28 C         140.3119  144.9868  159.6691 C.ar    1  UNL1        0.0870
     29 CL        140.2497  145.8380  158.4358 Cl      1  UNL1       -0.0752
     30 S         140.2669  145.4809  161.0847 S.2     1  UNL1       -0.0726
@<TRIPOS>BOND
     1     1     2    1
     2     2    10    1
     3    10    11   ar
     4    11    12   ar
     5    12    13   ar
     6    13    16    1
     7    16    17    1
     8    16    18    2
     9    16    19    2
    10    13    14   ar
    11    14    15   ar
    12     2     3    1
    13     3     4   am
    14     4     5    2
    15     4     6   am
    16     6    22    1
    17    22    23    1
    18    23    24    2
    19    23    25    1
    20    25    26   ar
    21    26    27   ar
    22    27    28   ar
    23    28    29    1
    24    28    30   ar
    25     6     7   am
    26     7     8    2
    27     7     2    1
    28    15    10   ar
    29    30    25   ar
    30    17    20    1
    31    17    21    1
    32     3     9    1
@<TRIPOS>MOLECULE
*****
 30 32 0 0 0
SMALL
GASTEIGER

@<TRIPOS>ATOM
      1 C         143.3653  138.5517  166.0977 C.3     1  UNL1        0.0337
      2 C         141.9823  139.0551  165.8077 C.3     1  UNL1        0.1467
      3 N         141.9781  137.9762  164.7657 N.am    1  UNL1       -0.2806
      4 C         140.6540  138.0164  164.0622 C.2     1  UNL1        0.3106
      5 O         140.2201  137.1116  162.9473 O.2     1  UNL1       -0.2521
      6 N         139.8398  139.1201  164.6694 N.am    1  UNL1       -0.2049
      7 C         140.6608  139.7621  165.7483 C.2     1  UNL1        0.2527
      8 O         140.2349  140.9097  166.6154 O.2     1  UNL1       -0.2723
      9 H         142.7151  137.3514  164.5767 H       1  UNL1        0.1516
     10 C         142.2757  140.0288  166.9104 C.ar    1  UNL1        0.0021
     11 C         141.9920  139.6560  168.3354 C.ar    1  UNL1       -0.0009
     12 C         142.2854  140.6297  169.4380 C.ar    1  UNL1        0.0196
     13 C         142.8624  141.9762  169.1157 C.ar    1  UNL1        0.1217
     14 C         143.1461  142.3491  167.6907 C.ar    1  UNL1        0.0196
     15 C         142.8527  141.3754  166.5881 C.ar    1  UNL1       -0.0009
     16 S         143.1558  142.9500  170.2184 S.O2    1  UNL1        0.0572
     17 N         143.4491  143.9236  171.3210 N.3     1  UNL1       -0.2035
     18 O         141.6915  143.0357  170.5322 O.2     1  UNL1       -0.1532
     19 O         144.6200  142.8642  169.9045 O.2     1  UNL1       -0.1532
     20 H         142.5769  144.1993  171.7722 H       1  UNL1        0.1442
     21 H         143.9069  144.7486  170.9333 H       1  UNL1        0.1442
     22 C         138.4488  139.5129  164.2683 C.3     1  UNL1        0.1719
     23 C         138.1808  140.8928  163.7446 C.2     1  UNL1        0.1995
     24 O         137.7763  141.9873  164.6871 O.2     1  UNL1       -0.2890
     25 C         138.3172  141.1780  162.2783 C.ar    1  UNL1        0.0667
     26 C         138.8090  142.4584  161.6711 C.ar    1  UNL1        0.0108
     27 C         138.7815  142.3046  160.1793 C.ar    1  UNL1        0.0186
     28 C         138.2727  140.9292  159.8644 C.ar    1  UNL1        0.0870
     29 CL        138.0840  140.3515  158.4931 Cl      1  UNL1       -0.0752
     30 S         137.9857  140.2329  161.1616 S.2     1  UNL1       -0.0726
@<TRIPOS>BOND
     1     1     2    1
     2     2    10    1
     3    10    11   ar
     4    11    12   ar
     5    12    13   ar
     6    13    16    1
     7    16    17    1
     8    16    18    2
     9    16    19    2
    10    13    14   ar
    11    14    15   ar
    12     2     3    1
    13     3     4   am
    14     4     5    2
    15     4     6   am
    16     6    22    1
    17    22    23    1
    18    23    24    2
    19    23    25    1
    20    25    26   ar
    21    26    27   ar
    22    27    28   ar
    23    28    29    1
    24    28    30   ar
    25     6     7   am
    26     7     8    2
    27     7     2    1
    28    15    10   ar
    29    30    25   ar
    30    17    20    1
    31    17    21    1
    32     3     9    1
@<TRIPOS>MOLECULE
*****
 30 32 0 0 0
SMALL
GASTEIGER

@<TRIPOS>ATOM
      1 C         138.8282  142.8124  164.7618 C.3     1  UNL1        0.0337
      2 C         140.3103  142.6465  164.6013 C.3     1  UNL1        0.1467
      3 N         140.0808  143.3007  163.2711 N.am    1  UNL1       -0.2806
      4 C         141.4043  143.4096  162.5736 C.2     1  UNL1        0.3106
      5 O         141.6391  144.0015  161.2155 O.2     1  UNL1       -0.2521
      6 N         142.4518  142.8228  163.4727 N.am    1  UNL1       -0.2049
      7 C         141.7757  142.3511  164.7259 C.2     1  UNL1        0.2527
      8 O         142.4471  141.6986  165.8979 O.2     1  UNL1       -0.2723
      9 H         139.2138  143.6052  162.9179 H       1  UNL1        0.1516
     10 C         140.2300  142.0270  165.9650 C.ar    1  UNL1        0.0021
     11 C         139.9149  140.5675  166.1084 C.ar    1  UNL1       -0.0009
     12 C         139.8346  139.9481  167.4721 C.ar    1  UNL1        0.0196
     13 C         140.0692  140.7881  168.6925 C.ar    1  UNL1        0.1217
     14 C         140.3842  142.2476  168.5491 C.ar    1  UNL1        0.0196
     15 C         140.4646  142.8670  167.1854 C.ar    1  UNL1       -0.0009
     16 S         139.9888  140.1685  170.0562 S.O2    1  UNL1        0.0572
     17 N         139.9085  139.5490  171.4199 N.3     1  UNL1       -0.2035
     18 O         138.6774  140.8573  170.2919 O.2     1  UNL1       -0.1532
     19 O         141.3003  139.4798  169.8206 O.2     1  UNL1       -0.1532
     20 H         139.0495  139.8502  171.8801 H       1  UNL1        0.1442
     21 H         140.7124  139.8428  171.9747 H       1  UNL1        0.1442
     22 C         143.9179  142.7247  163.1715 C.3     1  UNL1        0.1719
     23 C         144.6183  141.4024  163.2763 C.2     1  UNL1        0.1995
     24 O         145.9704  141.3187  163.9203 O.2     1  UNL1       -0.2890
     25 C         143.9665  140.1637  162.7371 C.ar    1  UNL1        0.0667
     26 C         143.1901  139.1576  163.5339 C.ar    1  UNL1        0.0108
     27 C         142.7204  138.0857  162.5956 C.ar    1  UNL1        0.0186
     28 C         143.2064  138.4293  161.2188 C.ar    1  UNL1        0.0870
     29 CL        142.9648  137.6292  159.9733 Cl      1  UNL1       -0.0752
     30 S         143.9766  139.7135  161.3062 S.2     1  UNL1       -0.0726
@<TRIPOS>BOND
     1     1     2    1
     2     2    10    1
     3    10    11   ar
     4    11    12   ar
     5    12    13   ar
     6    13    16    1
     7    16    17    1
     8    16    18    2
     9    16    19    2
    10    13    14   ar
    11    14    15   ar
    12     2     3    1
    13     3     4   am
    14     4     5    2
    15     4     6   am
    16     6    22    1
    17    22    23    1
    18    23    24    2
    19    23    25    1
    20    25    26   ar
    21    26    27   ar
    22    27    28   ar
    23    28    29    1
    24    28    30   ar
    25     6     7   am
    26     7     8    2
    27     7     2    1
    28    15    10   ar
    29    30    25   ar
    30    17    20    1
    31    17    21    1
    32     3     9    1
@<TRIPOS>MOLECULE
*****
 30 32 0 0 0
SMALL
GASTEIGER

@<TRIPOS>ATOM
      1 C         140.1024  143.3864  165.1137 C.3     1  UNL1        0.0337
      2 C         141.0728  142.3110  164.7241 C.3     1  UNL1        0.1467
      3 N         140.9778  142.9366  163.3641 N.am    1  UNL1       -0.2806
      4 C         141.8670  142.1640  162.4354 C.2     1  UNL1        0.3106
      5 O         142.0751  142.4452  160.9768 O.2     1  UNL1       -0.2521
      6 N         142.5115  141.0610  163.2213 N.am    1  UNL1       -0.2049
      7 C         142.0206  141.1518  164.6359 C.2     1  UNL1        0.2527
      8 O         142.4094  140.2429  165.7641 O.2     1  UNL1       -0.2723
      9 H         140.4284  143.7173  163.1233 H       1  UNL1        0.1516
     10 C         140.9649  141.9102  166.1656 C.ar    1  UNL1        0.0021
     11 C         139.9090  140.9357  166.5960 C.ar    1  UNL1       -0.0009
     12 C         139.8011  140.5350  168.0374 C.ar    1  UNL1        0.0196
     13 C         140.7491  141.1088  169.0484 C.ar    1  UNL1        0.1217
     14 C         141.8050  142.0833  168.6179 C.ar    1  UNL1        0.0196
     15 C         141.9129  142.4841  167.1765 C.ar    1  UNL1       -0.0009
     16 S         140.6412  140.7080  170.4899 S.O2    1  UNL1        0.0572
     17 N         140.5333  140.3072  171.9313 N.3     1  UNL1       -0.2035
     18 O         139.7337  141.8745  170.7463 O.2     1  UNL1       -0.1532
     19 O         141.5487  139.5416  170.2335 O.2     1  UNL1       -0.1532
     20 H         139.9270  140.9642  172.4224 H       1  UNL1        0.1442
     21 H         141.4602  140.3164  172.3570 H       1  UNL1        0.1442
     22 C         143.4772  140.0453  162.6867 C.3     1  UNL1        0.1719
     23 C         142.9919  138.6795  162.3006 C.2     1  UNL1        0.1995
     24 O         143.9300  137.7062  161.6504 O.2     1  UNL1       -0.2890
     25 C         141.5685  138.2870  162.5647 C.ar    1  UNL1        0.0667
     26 C         141.0626  137.5705  163.7816 C.ar    1  UNL1        0.0108
     27 C         139.5825  137.3828  163.6272 C.ar    1  UNL1        0.0186
     28 C         139.1734  137.9832  162.3149 C.ar    1  UNL1        0.0870
     29 CL        137.7815  138.0186  161.7573 Cl      1  UNL1       -0.0752
     30 S         140.4008  138.5420  161.6583 S.2     1  UNL1       -0.0726
@<TRIPOS>BOND
     1     1     2    1
     2     2    10    1
     3    10    11   ar
     4    11    12   ar
     5    12    13   ar
     6    13    16    1
     7    16    17    1
     8    16    18    2
     9    16    19    2
    10    13    14   ar
    11    14    15   ar
    12     2     3    1
    13     3     4   am
    14     4     5    2
    15     4     6   am
    16     6    22    1
    17    22    23    1
    18    23    24    2
    19    23    25    1
    20    25    26   ar
    21    26    27   ar
    22    27    28   ar
    23    28    29    1
    24    28    30   ar
    25     6     7   am
    26     7     8    2
    27     7     2    1
    28    15    10   ar
    29    30    25   ar
    30    17    20    1
    31    17    21    1
    32     3     9    1
