@<TRIPOS>MOLECULE
*****
 32 36 0 0 0
SMALL
GASTEIGER

@<TRIPOS>ATOM
      1 C         141.4178  139.8230  167.7964 C.3     1  UNL1        0.0704
      2 C         142.6362  140.0604  168.6385 C.3     1  UNL1        0.0087
      3 C         142.1805  140.4254  170.0203 C.3     1  UNL1        0.0005
      4 C         140.6807  140.4137  170.0320 C.3     1  UNL1        0.0005
      5 C         140.2093  140.0413  168.6576 C.3     1  UNL1        0.0095
      6 C         138.9910  139.8039  167.8153 C.3     1  UNL1        0.0162
      7 C         139.4466  139.4388  166.4336 C.3     1  UNL1        0.0545
      8 C         140.9465  139.4506  166.4219 C.3     1  UNL1        0.0243
      9 C         141.7597  144.8212  163.0899 C.ar    1  UNL1        0.1575
     10 C         142.9683  144.6028  162.2287 C.ar    1  UNL1        0.1352
     11 N         143.8668  143.4285  162.4810 N.ar    1  UNL1       -0.2452
     12 C         143.5567  142.4725  163.5945 C.ar    1  UNL1        0.0586
     13 C         142.3481  142.6909  164.4557 C.ar    1  UNL1        0.0144
     14 C         141.4497  143.8652  164.2034 C.ar    1  UNL1        0.0371
     15 C         142.0380  141.7349  165.5693 C.3     1  UNL1        0.1214
     16 N         142.9365  140.5606  165.8216 N.am    1  UNL1       -0.2750
     17 C         142.6264  139.6046  166.9351 C.2     1  UNL1        0.2250
     18 O         143.5249  138.4303  167.1875 O.2     1  UNL1       -0.2749
     19 C         144.1451  140.3422  164.9604 C.3     1  UNL1        0.1000
     20 C         144.4552  141.2982  163.8469 C.3     1  UNL1        0.0670
     21 C         139.7858  145.9068  161.7956 C.3     1  UNL1        0.2525
     22 O         140.8612  145.9955  162.8375 O.3     1  UNL1       -0.4699
     23 N         138.5582  139.1182  165.2682 N.3     1  UNL1       -0.2975
     24 H         137.6764  138.7809  165.6542 H       1  UNL1        0.1232
     25 C         138.2146  140.1850  164.2713 C.3     1  UNL1        0.0865
     26 C         138.0994  141.6142  164.7120 C.3     1  UNL1        0.0503
     27 C         137.7557  142.6811  163.7151 C.3     1  UNL1        0.1437
     28 O         137.5272  142.3188  162.2776 O.3     1  UNL1       -0.3511
     29 C         137.6424  140.8895  161.8369 C.3     1  UNL1        0.1729
     30 C         137.9861  139.8227  162.8338 C.3     1  UNL1        0.1591
     31 O         138.1012  138.3936  162.3931 O.3     1  UNL1       -0.3496
     32 C         139.1518  137.9978  161.3983 C.3     1  UNL1        0.1742
@<TRIPOS>BOND
     1    21    22    1
     2    22     9    1
     3     9    10   ar
     4    10    11   ar
     5    11    12   ar
     6    12    13   ar
     7    13    14   ar
     8    13    15    1
     9    15    16    1
    10    16    17   am
    11    17    18    2
    12     1    17    1
    13     1     2    1
    14     2     3    1
    15     3     4    1
    16     5     4    1
    17     5     6    1
    18     6     7    1
    19     7    23    1
    20    23    25    1
    21    25    26    1
    22    26    27    1
    23    27    28    1
    24    28    29    1
    25    29    30    1
    26    30    31    1
    27    31    32    1
    28     7     8    1
    29    16    19    1
    30    19    20    1
    31    14     9   ar
    32     5     1    1
    33    30    25    1
    34    20    12    1
    35     8     1    1
    36    23    24    1
@<TRIPOS>MOLECULE
*****
 32 36 0 0 0
SMALL
GASTEIGER

@<TRIPOS>ATOM
      1 C         139.0798  142.4726  163.0258 C.3     1  UNL1        0.0704
      2 C         137.7551  142.7022  163.6909 C.3     1  UNL1        0.0087
      3 C         137.4057  144.1531  163.5393 C.3     1  UNL1        0.0005
      4 C         138.5144  144.8201  162.7805 C.3     1  UNL1        0.0005
      5 C         139.5491  143.7815  162.4631 C.3     1  UNL1        0.0095
      6 C         140.8738  143.5518  161.7980 C.3     1  UNL1        0.0162
      7 C         141.2233  142.1009  161.9497 C.3     1  UNL1        0.0545
      8 C         140.1146  141.4340  162.7085 C.3     1  UNL1        0.0243
      9 C         140.8913  142.0903  169.6457 C.ar    1  UNL1        0.1575
     10 C         140.4220  140.7814  170.2083 C.ar    1  UNL1        0.1352
     11 N         139.6843  139.8108  169.3345 N.ar    1  UNL1       -0.2452
     12 C         139.4159  140.1490  167.8980 C.ar    1  UNL1        0.0586
     13 C         139.8852  141.4579  167.3354 C.ar    1  UNL1        0.0144
     14 C         140.6228  142.4285  168.2092 C.ar    1  UNL1        0.0371
     15 C         139.6167  141.7961  165.8988 C.3     1  UNL1        0.1214
     16 N         138.8790  140.8255  165.0250 N.am    1  UNL1       -0.2750
     17 C         138.6106  141.1637  163.5885 C.2     1  UNL1        0.2250
     18 O         137.8729  140.1930  162.7146 O.2     1  UNL1       -0.2749
     19 C         138.4098  139.5165  165.5877 C.3     1  UNL1        0.1000
     20 C         138.6782  139.1783  167.0241 C.3     1  UNL1        0.0670
     21 C         143.1289  143.0757  170.5245 C.3     1  UNL1        0.2525
     22 O         141.6290  143.0610  170.5195 O.3     1  UNL1       -0.4699
     23 N         142.4638  141.4342  161.4331 N.3     1  UNL1       -0.2975
     24 H         142.8748  142.0676  160.7474 H       1  UNL1        0.1232
     25 C         143.5608  141.0526  162.3822 C.3     1  UNL1        0.0865
     26 C         143.5799  139.6836  162.9950 C.3     1  UNL1        0.0503
     27 C         144.6770  139.3020  163.9442 C.3     1  UNL1        0.1437
     28 O         145.7549  140.2894  164.2805 O.3     1  UNL1       -0.3511
     29 C         145.7358  141.6584  163.6677 C.3     1  UNL1        0.1729
     30 C         144.6387  142.0400  162.7186 C.3     1  UNL1        0.1591
     31 O         144.6196  143.4090  162.1058 O.3     1  UNL1       -0.3496
     32 C         144.1096  144.5774  162.8962 C.3     1  UNL1        0.1742
@<TRIPOS>BOND
     1    21    22    1
     2    22     9    1
     3     9    10   ar
     4    10    11   ar
     5    11    12   ar
     6    12    13   ar
     7    13    14   ar
     8    13    15    1
     9    15    16    1
    10    16    17   am
    11    17    18    2
    12     1    17    1
    13     1     2    1
    14     2     3    1
    15     3     4    1
    16     5     4    1
    17     5     6    1
    18     6     7    1
    19     7    23    1
    20    23    25    1
    21    25    26    1
    22    26    27    1
    23    27    28    1
    24    28    29    1
    25    29    30    1
    26    30    31    1
    27    31    32    1
    28     7     8    1
    29    16    19    1
    30    19    20    1
    31    14     9   ar
    32     5     1    1
    33    30    25    1
    34    20    12    1
    35     8     1    1
    36    23    24    1
@<TRIPOS>MOLECULE
*****
 32 36 0 0 0
SMALL
GASTEIGER

@<TRIPOS>ATOM
      1 C         140.2363  138.9274  164.5859 C.3     1  UNL1        0.0704
      2 C         139.1523  138.8352  163.5533 C.3     1  UNL1        0.0087
      3 C         139.5611  137.8047  162.5428 C.3     1  UNL1        0.0005
      4 C         140.8978  137.2601  162.9510 C.3     1  UNL1        0.0005
      5 C         141.3151  137.9539  164.2137 C.3     1  UNL1        0.0095
      6 C         142.3990  138.0462  165.2464 C.3     1  UNL1        0.0162
      7 C         141.9902  139.0767  166.2569 C.3     1  UNL1        0.0545
      8 C         140.6535  139.6213  165.8487 C.3     1  UNL1        0.0243
      9 C         141.0049  144.6642  160.8781 C.ar    1  UNL1        0.1575
     10 C         139.9261  145.6376  161.2503 C.ar    1  UNL1        0.1352
     11 N         138.9093  145.2690  162.2897 N.ar    1  UNL1       -0.2452
     12 C         138.9713  143.9270  162.9568 C.ar    1  UNL1        0.0586
     13 C         140.0501  142.9536  162.5845 C.ar    1  UNL1        0.0144
     14 C         141.0669  143.3222  161.5452 C.ar    1  UNL1        0.0371
     15 C         140.1122  141.6115  163.2517 C.3     1  UNL1        0.1214
     16 N         139.0954  141.2429  164.2910 N.am    1  UNL1       -0.2750
     17 C         139.1574  139.9009  164.9582 C.2     1  UNL1        0.2250
     18 O         138.1407  139.5323  165.9975 O.2     1  UNL1       -0.2749
     19 C         138.0166  142.2164  164.6633 C.3     1  UNL1        0.1000
     20 C         137.9546  143.5584  163.9962 C.3     1  UNL1        0.0670
     21 C         141.5754  145.4760  158.4769 C.3     1  UNL1        0.2525
     22 O         142.0217  145.0328  159.8387 O.3     1  UNL1       -0.4699
     23 N         142.7795  139.4899  167.4637 N.3     1  UNL1       -0.2975
     24 H         143.6228  139.9498  167.1206 H       1  UNL1        0.1232
     25 C         142.1691  140.4079  168.4808 C.3     1  UNL1        0.0865
     26 C         141.2715  139.8544  169.5476 C.3     1  UNL1        0.0503
     27 C         140.6610  140.7724  170.5648 C.3     1  UNL1        0.1437
     28 O         140.9481  142.2438  170.5152 O.3     1  UNL1       -0.3511
     29 C         141.8457  142.7973  169.4483 C.3     1  UNL1        0.1729
     30 C         142.4561  141.8793  168.4312 C.3     1  UNL1        0.1591
     31 O         143.3536  142.4328  167.3644 O.3     1  UNL1       -0.3496
     32 C         142.8266  142.6441  165.9760 C.3     1  UNL1        0.1742
@<TRIPOS>BOND
     1    21    22    1
     2    22     9    1
     3     9    10   ar
     4    10    11   ar
     5    11    12   ar
     6    12    13   ar
     7    13    14   ar
     8    13    15    1
     9    15    16    1
    10    16    17   am
    11    17    18    2
    12     1    17    1
    13     1     2    1
    14     2     3    1
    15     3     4    1
    16     5     4    1
    17     5     6    1
    18     6     7    1
    19     7    23    1
    20    23    25    1
    21    25    26    1
    22    26    27    1
    23    27    28    1
    24    28    29    1
    25    29    30    1
    26    30    31    1
    27    31    32    1
    28     7     8    1
    29    16    19    1
    30    19    20    1
    31    14     9   ar
    32     5     1    1
    33    30    25    1
    34    20    12    1
    35     8     1    1
    36    23    24    1
@<TRIPOS>MOLECULE
*****
 32 36 0 0 0
SMALL
GASTEIGER

@<TRIPOS>ATOM
      1 C         141.5726  140.3028  168.3802 C.3     1  UNL1        0.0704
      2 C         142.9325  140.6771  168.8904 C.3     1  UNL1        0.0087
      3 C         142.7595  141.3528  170.2184 C.3     1  UNL1        0.0005
      4 C         141.2927  141.3960  170.5289 C.3     1  UNL1        0.0005
      5 C         140.5591  140.7471  169.3928 C.3     1  UNL1        0.0095
      6 C         139.1992  140.3727  168.8825 C.3     1  UNL1        0.0162
      7 C         139.3722  139.6970  167.5545 C.3     1  UNL1        0.0545
      8 C         140.8390  139.6538  167.2441 C.3     1  UNL1        0.0243
      9 C         141.6251  144.7570  163.1450 C.ar    1  UNL1        0.1575
     10 C         142.6385  144.3127  162.1325 C.ar    1  UNL1        0.1352
     11 N         143.4388  143.0663  162.3694 N.ar    1  UNL1       -0.2452
     12 C         143.2257  142.2644  163.6189 C.ar    1  UNL1        0.0586
     13 C         142.2122  142.7087  164.6315 C.ar    1  UNL1        0.0144
     14 C         141.4119  143.9551  164.3946 C.ar    1  UNL1        0.0371
     15 C         141.9990  141.9067  165.8811 C.3     1  UNL1        0.1214
     16 N         142.7993  140.6604  166.1180 N.am    1  UNL1       -0.2750
     17 C         142.5861  139.8584  167.3676 C.2     1  UNL1        0.2250
     18 O         143.3864  138.6121  167.6045 O.2     1  UNL1       -0.2749
     19 C         143.8128  140.2160  165.1054 C.3     1  UNL1        0.1000
     20 C         144.0260  141.0180  163.8559 C.3     1  UNL1        0.0670
     21 C         139.7300  146.0081  161.8827 C.3     1  UNL1        0.2525
     22 O         140.8248  146.0034  162.9081 O.3     1  UNL1       -0.4699
     23 N         138.2715  139.1590  166.6890 N.3     1  UNL1       -0.2975
     24 H         137.4656  139.7695  166.8240 H       1  UNL1        0.1232
     25 C         138.4755  139.0325  165.2083 C.3     1  UNL1        0.0865
     26 C         138.8149  137.7000  164.6092 C.3     1  UNL1        0.0503
     27 C         139.0190  137.5734  163.1285 C.3     1  UNL1        0.1437
     28 O         138.8836  138.7795  162.2470 O.3     1  UNL1       -0.3511
     29 C         138.5442  140.1121  162.8462 C.3     1  UNL1        0.1729
     30 C         138.3401  140.2386  164.3268 C.3     1  UNL1        0.1591
     31 O         138.0007  141.5712  164.9259 O.3     1  UNL1       -0.3496
     32 C         137.8495  142.7740  164.0426 C.3     1  UNL1        0.1742
@<TRIPOS>BOND
     1    21    22    1
     2    22     9    1
     3     9    10   ar
     4    10    11   ar
     5    11    12   ar
     6    12    13   ar
     7    13    14   ar
     8    13    15    1
     9    15    16    1
    10    16    17   am
    11    17    18    2
    12     1    17    1
    13     1     2    1
    14     2     3    1
    15     3     4    1
    16     5     4    1
    17     5     6    1
    18     6     7    1
    19     7    23    1
    20    23    25    1
    21    25    26    1
    22    26    27    1
    23    27    28    1
    24    28    29    1
    25    29    30    1
    26    30    31    1
    27    31    32    1
    28     7     8    1
    29    16    19    1
    30    19    20    1
    31    14     9   ar
    32     5     1    1
    33    30    25    1
    34    20    12    1
    35     8     1    1
    36    23    24    1
@<TRIPOS>MOLECULE
*****
 32 36 0 0 0
SMALL
GASTEIGER

@<TRIPOS>ATOM
      1 C         140.1591  138.9281  166.0450 C.3     1  UNL1        0.0704
      2 C         139.9053  139.7687  167.2611 C.3     1  UNL1        0.0087
      3 C         138.4841  139.5492  167.6878 C.3     1  UNL1        0.0005
      4 C         137.8597  138.5729  166.7355 C.3     1  UNL1        0.0005
      5 C         138.8950  138.1890  165.7202 C.3     1  UNL1        0.0095
      6 C         139.1489  137.3484  164.5041 C.3     1  UNL1        0.0162
      7 C         140.5701  137.5679  164.0773 C.3     1  UNL1        0.0545
      8 C         141.1945  138.5442  165.0297 C.3     1  UNL1        0.0243
      9 C         140.5832  144.5179  162.0671 C.ar    1  UNL1        0.1575
     10 C         141.8474  145.2569  162.3919 C.ar    1  UNL1        0.1352
     11 N         142.7740  144.7302  163.4474 N.ar    1  UNL1       -0.2452
     12 C         142.4364  143.4645  164.1780 C.ar    1  UNL1        0.0586
     13 C         141.1722  142.7254  163.8531 C.ar    1  UNL1        0.0144
     14 C         140.2456  143.2522  162.7977 C.ar    1  UNL1        0.0371
     15 C         140.8345  141.4596  164.5838 C.3     1  UNL1        0.1214
     16 N         141.7610  140.9329  165.6392 N.am    1  UNL1       -0.2750
     17 C         141.4234  139.6671  166.3698 C.2     1  UNL1        0.2250
     18 O         142.3500  139.1404  167.4253 O.2     1  UNL1       -0.2749
     19 C         143.0253  141.6720  165.9640 C.3     1  UNL1        0.1000
     20 C         143.3630  142.9377  165.2334 C.3     1  UNL1        0.0670
     21 C         140.2032  145.4875  159.6868 C.3     1  UNL1        0.2525
     22 O         139.6566  145.0447  161.0116 O.3     1  UNL1       -0.4699
     23 N         141.2479  136.9241  162.9042 N.3     1  UNL1       -0.2975
     24 H         140.5442  136.3553  162.4333 H       1  UNL1        0.1232
     25 C         141.8926  137.7752  161.8506 C.3     1  UNL1        0.0865
     26 C         143.3684  138.0388  161.8990 C.3     1  UNL1        0.0503
     27 C         144.0132  138.8899  160.8454 C.3     1  UNL1        0.1437
     28 O         143.1821  139.4774  159.7435 O.3     1  UNL1       -0.3511
     29 C         141.7062  139.2138  159.6953 C.3     1  UNL1        0.1729
     30 C         141.0615  138.3627  160.7488 C.3     1  UNL1        0.1591
     31 O         139.5856  138.0991  160.7005 O.3     1  UNL1       -0.3496
     32 C         138.6237  139.1198  161.2323 C.3     1  UNL1        0.1742
@<TRIPOS>BOND
     1    21    22    1
     2    22     9    1
     3     9    10   ar
     4    10    11   ar
     5    11    12   ar
     6    12    13   ar
     7    13    14   ar
     8    13    15    1
     9    15    16    1
    10    16    17   am
    11    17    18    2
    12     1    17    1
    13     1     2    1
    14     2     3    1
    15     3     4    1
    16     5     4    1
    17     5     6    1
    18     6     7    1
    19     7    23    1
    20    23    25    1
    21    25    26    1
    22    26    27    1
    23    27    28    1
    24    28    29    1
    25    29    30    1
    26    30    31    1
    27    31    32    1
    28     7     8    1
    29    16    19    1
    30    19    20    1
    31    14     9   ar
    32     5     1    1
    33    30    25    1
    34    20    12    1
    35     8     1    1
    36    23    24    1
@<TRIPOS>MOLECULE
*****
 32 36 0 0 0
SMALL
GASTEIGER

@<TRIPOS>ATOM
      1 C         140.4630  139.3288  165.0925 C.3     1  UNL1        0.0704
      2 C         139.5857  138.5724  164.1396 C.3     1  UNL1        0.0087
      3 C         140.2705  137.2805  163.8049 C.3     1  UNL1        0.0005
      4 C         141.5711  137.2385  164.5510 C.3     1  UNL1        0.0005
      5 C         141.6901  138.5044  165.3468 C.3     1  UNL1        0.0095
      6 C         142.5674  139.2608  166.2998 C.3     1  UNL1        0.0162
      7 C         141.8825  140.5527  166.6345 C.3     1  UNL1        0.0545
      8 C         140.5820  140.5947  165.8883 C.3     1  UNL1        0.0243
      9 C         141.7207  143.7068  159.9445 C.ar    1  UNL1        0.1575
     10 C         140.4936  144.5312  159.6903 C.ar    1  UNL1        0.1352
     11 N         139.2604  144.3151  160.5165 N.ar    1  UNL1       -0.2452
     12 C         139.2543  143.2747  161.5969 C.ar    1  UNL1        0.0586
     13 C         140.4813  142.4503  161.8511 C.ar    1  UNL1        0.0144
     14 C         141.7145  142.6663  161.0250 C.ar    1  UNL1        0.0371
     15 C         140.4753  141.4097  162.9316 C.3     1  UNL1        0.1214
     16 N         139.2421  141.1937  163.7578 N.am    1  UNL1       -0.2750
     17 C         139.2359  140.1532  164.8382 C.2     1  UNL1        0.2250
     18 O         138.0028  139.9372  165.6644 O.2     1  UNL1       -0.2749
     19 C         138.0150  142.0181  163.5035 C.3     1  UNL1        0.1000
     20 C         138.0211  143.0586  162.4231 C.3     1  UNL1        0.0670
     21 C         143.9714  142.8284  158.9893 C.3     1  UNL1        0.2525
     22 O         142.9538  143.9229  159.1183 O.3     1  UNL1       -0.4699
     23 N         142.4063  141.6159  167.5539 N.3     1  UNL1       -0.2975
     24 H         142.3831  142.4929  167.0335 H       1  UNL1        0.1232
     25 C         141.7277  141.8733  168.8666 C.3     1  UNL1        0.0865
     26 C         140.6820  142.9434  168.9731 C.3     1  UNL1        0.0503
     27 C         140.0032  143.2008  170.2858 C.3     1  UNL1        0.1437
     28 O         140.3703  142.3881  171.4919 O.3     1  UNL1       -0.3511
     29 C         141.4160  141.3179  171.3854 C.3     1  UNL1        0.1729
     30 C         142.0947  141.0606  170.0727 C.3     1  UNL1        0.1591
     31 O         143.1404  139.9905  169.9662 O.3     1  UNL1       -0.3496
     32 C         142.7387  138.5453  169.9788 C.3     1  UNL1        0.1742
@<TRIPOS>BOND
     1    21    22    1
     2    22     9    1
     3     9    10   ar
     4    10    11   ar
     5    11    12   ar
     6    12    13   ar
     7    13    14   ar
     8    13    15    1
     9    15    16    1
    10    16    17   am
    11    17    18    2
    12     1    17    1
    13     1     2    1
    14     2     3    1
    15     3     4    1
    16     5     4    1
    17     5     6    1
    18     6     7    1
    19     7    23    1
    20    23    25    1
    21    25    26    1
    22    26    27    1
    23    27    28    1
    24    28    29    1
    25    29    30    1
    26    30    31    1
    27    31    32    1
    28     7     8    1
    29    16    19    1
    30    19    20    1
    31    14     9   ar
    32     5     1    1
    33    30    25    1
    34    20    12    1
    35     8     1    1
    36    23    24    1
@<TRIPOS>MOLECULE
*****
 32 36 0 0 0
SMALL
GASTEIGER

@<TRIPOS>ATOM
      1 C         141.1369  139.5753  166.6712 C.3     1  UNL1        0.0704
      2 C         142.0682  140.2600  167.6270 C.3     1  UNL1        0.0087
      3 C         141.2380  141.0117  168.6248 C.3     1  UNL1        0.0005
      4 C         139.7936  140.7915  168.2857 C.3     1  UNL1        0.0005
      5 C         139.7310  139.9037  167.0783 C.3     1  UNL1        0.0095
      6 C         138.7997  139.2190  166.1224 C.3     1  UNL1        0.0162
      7 C         139.6300  138.4673  165.1245 C.3     1  UNL1        0.0545
      8 C         141.0744  138.6875  165.4637 C.3     1  UNL1        0.0243
      9 C         142.9111  143.5173  161.3268 C.ar    1  UNL1        0.1575
     10 C         144.3169  143.1888  160.9197 C.ar    1  UNL1        0.1352
     11 N         145.0867  142.1376  161.6629 N.ar    1  UNL1       -0.2452
     12 C         144.4508  141.4149  162.8132 C.ar    1  UNL1        0.0586
     13 C         143.0450  141.7434  163.2202 C.ar    1  UNL1        0.0144
     14 C         142.2751  142.7946  162.4770 C.ar    1  UNL1        0.0371
     15 C         142.4089  141.0207  164.3706 C.3     1  UNL1        0.1214
     16 N         143.1787  139.9695  165.1138 N.am    1  UNL1       -0.2750
     17 C         142.5427  139.2468  166.2640 C.2     1  UNL1        0.2250
     18 O         143.3126  138.1956  167.0072 O.2     1  UNL1       -0.2749
     19 C         144.5846  139.6410  164.7066 C.3     1  UNL1        0.1000
     20 C         145.2206  140.3637  163.5564 C.3     1  UNL1        0.0670
     21 C         140.6953  144.8061  160.9037 C.3     1  UNL1        0.2525
     22 O         142.1413  144.5685  160.5836 O.3     1  UNL1       -0.4699
     23 N         139.1074  137.6405  163.9872 N.3     1  UNL1       -0.2975
     24 H         138.1684  137.3401  164.2486 H       1  UNL1        0.1232
     25 C         139.0054  138.2340  162.6134 C.3     1  UNL1        0.0865
     26 C         137.7783  138.9999  162.2165 C.3     1  UNL1        0.0503
     27 C         137.6763  139.5935  160.8427 C.3     1  UNL1        0.1437
     28 O         138.8014  139.4212  159.8658 O.3     1  UNL1       -0.3511
     29 C         140.0286  138.6553  160.2628 C.3     1  UNL1        0.1729
     30 C         140.1306  138.0617  161.6365 C.3     1  UNL1        0.1591
     31 O         141.3577  137.2959  162.0334 O.3     1  UNL1       -0.3496
     32 C         142.6954  137.9746  162.0416 C.3     1  UNL1        0.1742
@<TRIPOS>BOND
     1    21    22    1
     2    22     9    1
     3     9    10   ar
     4    10    11   ar
     5    11    12   ar
     6    12    13   ar
     7    13    14   ar
     8    13    15    1
     9    15    16    1
    10    16    17   am
    11    17    18    2
    12     1    17    1
    13     1     2    1
    14     2     3    1
    15     3     4    1
    16     5     4    1
    17     5     6    1
    18     6     7    1
    19     7    23    1
    20    23    25    1
    21    25    26    1
    22    26    27    1
    23    27    28    1
    24    28    29    1
    25    29    30    1
    26    30    31    1
    27    31    32    1
    28     7     8    1
    29    16    19    1
    30    19    20    1
    31    14     9   ar
    32     5     1    1
    33    30    25    1
    34    20    12    1
    35     8     1    1
    36    23    24    1
@<TRIPOS>MOLECULE
*****
 32 36 0 0 0
SMALL
GASTEIGER

@<TRIPOS>ATOM
      1 C         138.9103  141.7457  164.8553 C.3     1  UNL1        0.0704
      2 C         137.8864  141.2789  163.8635 C.3     1  UNL1        0.0087
      3 C         137.2385  142.4903  163.2613 C.3     1  UNL1        0.0005
      4 C         137.8620  143.7058  163.8808 C.3     1  UNL1        0.0005
      5 C         138.8953  143.2455  164.8660 C.3     1  UNL1        0.0095
      6 C         139.9192  143.7122  165.8579 C.3     1  UNL1        0.0162
      7 C         140.5671  142.5008  166.4601 C.3     1  UNL1        0.0545
      8 C         139.9436  141.2854  165.8405 C.3     1  UNL1        0.0243
      9 C         143.2117  139.5735  159.9532 C.ar    1  UNL1        0.1575
     10 C         143.2267  138.0737  159.9426 C.ar    1  UNL1        0.1352
     11 N         142.3785  137.3082  160.9144 N.ar    1  UNL1       -0.2452
     12 C         141.5152  138.0425  161.8970 C.ar    1  UNL1        0.0586
     13 C         141.5002  139.5424  161.9076 C.ar    1  UNL1        0.0144
     14 C         142.3484  140.3079  160.9358 C.ar    1  UNL1        0.0371
     15 C         140.6369  140.2769  162.8902 C.3     1  UNL1        0.1214
     16 N         139.7886  139.5114  163.8621 N.am    1  UNL1       -0.2750
     17 C         138.9254  140.2457  164.8446 C.2     1  UNL1        0.2250
     18 O         138.0771  139.4803  165.8165 O.2     1  UNL1       -0.2749
     19 C         139.8037  138.0114  163.8514 C.3     1  UNL1        0.1000
     20 C         140.6670  137.2771  162.8688 C.3     1  UNL1        0.0670
     21 C         144.0052  141.8378  158.9565 C.3     1  UNL1        0.2525
     22 O         144.0599  140.3390  158.9814 O.3     1  UNL1       -0.4699
     23 N         141.6487  142.5043  167.4995 N.3     1  UNL1       -0.2975
     24 H         142.1344  143.3973  167.4161 H       1  UNL1        0.1232
     25 C         141.2973  142.3361  168.9480 C.3     1  UNL1        0.0865
     26 C         140.2345  143.1951  169.5666 C.3     1  UNL1        0.0503
     27 C         139.8832  143.0269  171.0152 C.3     1  UNL1        0.1437
     28 O         140.5946  141.9998  171.8451 O.3     1  UNL1       -0.3511
     29 C         141.6574  141.1408  171.2265 C.3     1  UNL1        0.1729
     30 C         142.0088  141.3090  169.7780 C.3     1  UNL1        0.1591
     31 O         143.0715  140.4500  169.1595 O.3     1  UNL1       -0.3496
     32 C         142.6900  139.3451  168.2195 C.3     1  UNL1        0.1742
@<TRIPOS>BOND
     1    21    22    1
     2    22     9    1
     3     9    10   ar
     4    10    11   ar
     5    11    12   ar
     6    12    13   ar
     7    13    14   ar
     8    13    15    1
     9    15    16    1
    10    16    17   am
    11    17    18    2
    12     1    17    1
    13     1     2    1
    14     2     3    1
    15     3     4    1
    16     5     4    1
    17     5     6    1
    18     6     7    1
    19     7    23    1
    20    23    25    1
    21    25    26    1
    22    26    27    1
    23    27    28    1
    24    28    29    1
    25    29    30    1
    26    30    31    1
    27    31    32    1
    28     7     8    1
    29    16    19    1
    30    19    20    1
    31    14     9   ar
    32     5     1    1
    33    30    25    1
    34    20    12    1
    35     8     1    1
    36    23    24    1
@<TRIPOS>MOLECULE
*****
 32 36 0 0 0
SMALL
GASTEIGER

@<TRIPOS>ATOM
      1 C         139.3353  142.2618  163.1362 C.3     1  UNL1        0.0704
      2 C         137.9284  142.5723  163.5533 C.3     1  UNL1        0.0087
      3 C         137.6609  144.0154  163.2433 C.3     1  UNL1        0.0005
      4 C         138.9026  144.5966  162.6347 C.3     1  UNL1        0.0005
      5 C         139.9374  143.5128  162.5686 C.3     1  UNL1        0.0095
      6 C         141.3444  143.2022  162.1515 C.3     1  UNL1        0.0162
      7 C         141.6119  141.7591  162.4615 C.3     1  UNL1        0.0545
      8 C         140.3702  141.1779  163.0701 C.3     1  UNL1        0.0243
      9 C         140.7996  141.9024  169.8428 C.ar    1  UNL1        0.1575
     10 C         140.1975  140.6514  170.4104 C.ar    1  UNL1        0.1352
     11 N         139.4230  139.7223  169.5232 N.ar    1  UNL1       -0.2452
     12 C         139.2505  140.0444  168.0684 C.ar    1  UNL1        0.0586
     13 C         139.8526  141.2955  167.5008 C.ar    1  UNL1        0.0144
     14 C         140.6271  142.2245  168.3880 C.ar    1  UNL1        0.0371
     15 C         139.6802  141.6176  166.0459 C.3     1  UNL1        0.1214
     16 N         138.9057  140.6886  165.1588 N.am    1  UNL1       -0.2750
     17 C         138.7332  141.0107  163.7040 C.2     1  UNL1        0.2250
     18 O         137.9587  140.0816  162.8168 O.2     1  UNL1       -0.2749
     19 C         138.3036  139.4375  165.7265 C.3     1  UNL1        0.1000
     20 C         138.4760  139.1154  167.1813 C.3     1  UNL1        0.0670
     21 C         143.0375  143.0539  170.4874 C.3     1  UNL1        0.2525
     22 O         141.5741  142.8314  170.7299 O.3     1  UNL1       -0.4699
     23 N         142.8957  141.0260  162.2075 N.3     1  UNL1       -0.2975
     24 H         143.0903  140.4747  163.0433 H       1  UNL1        0.1232
     25 C         143.0081  140.0936  161.0379 C.3     1  UNL1        0.0865
     26 C         143.2969  140.6375  159.6702 C.3     1  UNL1        0.0503
     27 C         143.4094  139.7051  158.5006 C.3     1  UNL1        0.1437
     28 O         143.2330  138.2287  158.6987 O.3     1  UNL1       -0.3511
     29 C         142.9442  137.6848  160.0665 C.3     1  UNL1        0.1729
     30 C         142.8318  138.6172  161.2361 C.3     1  UNL1        0.1591
     31 O         142.5430  138.0733  162.6038 O.3     1  UNL1       -0.3496
     32 C         141.1945  137.4924  162.9106 C.3     1  UNL1        0.1742
@<TRIPOS>BOND
     1    21    22    1
     2    22     9    1
     3     9    10   ar
     4    10    11   ar
     5    11    12   ar
     6    12    13   ar
     7    13    14   ar
     8    13    15    1
     9    15    16    1
    10    16    17   am
    11    17    18    2
    12     1    17    1
    13     1     2    1
    14     2     3    1
    15     3     4    1
    16     5     4    1
    17     5     6    1
    18     6     7    1
    19     7    23    1
    20    23    25    1
    21    25    26    1
    22    26    27    1
    23    27    28    1
    24    28    29    1
    25    29    30    1
    26    30    31    1
    27    31    32    1
    28     7     8    1
    29    16    19    1
    30    19    20    1
    31    14     9   ar
    32     5     1    1
    33    30    25    1
    34    20    12    1
    35     8     1    1
    36    23    24    1
