@<TRIPOS>MOLECULE
*****
 26 28 0 0 0
SMALL
GASTEIGER

@<TRIPOS>ATOM
      1 C         139.2178  138.4224  163.7194 C.ar    1  UNL1       -0.0208
      2 C         140.5562  139.0667  163.5105 C.ar    1  UNL1       -0.0042
      3 C         141.1836  139.8669  164.6132 C.ar    1  UNL1       -0.0003
      4 C         140.4726  140.0229  165.9247 C.ar    1  UNL1       -0.0000
      5 C         139.1342  139.3787  166.1336 C.ar    1  UNL1       -0.0003
      6 C         138.5068  138.5785  165.0310 C.ar    1  UNL1       -0.0042
      7 C         141.1001  140.8232  167.0275 C.ar    1  UNL1        0.0001
      8 C         142.3814  140.3600  167.6548 C.ar    1  UNL1        0.0014
      9 C         143.0089  141.1603  168.7575 C.ar    1  UNL1        0.0199
     10 C         142.3550  142.4238  169.2328 C.ar    1  UNL1        0.1217
     11 C         141.0736  142.8870  168.6054 C.ar    1  UNL1        0.0199
     12 C         140.4462  142.0867  167.5028 C.ar    1  UNL1        0.0014
     13 S         142.9824  143.2241  170.3354 S.O2    1  UNL1        0.0572
     14 N         143.6098  144.0243  171.4381 N.3     1  UNL1       -0.2035
     15 O         144.3325  142.6959  169.9506 O.2     1  UNL1       -0.1532
     16 O         141.6323  143.7523  170.7203 O.2     1  UNL1       -0.1532
     17 H         144.6176  143.8671  171.4413 H       1  UNL1        0.1442
     18 H         143.2176  143.7346  172.3340 H       1  UNL1        0.1442
     19 C         138.5903  137.6222  162.6167 C.3     1  UNL1        0.0437
     20 C         137.6424  138.2801  161.6583 C.3     1  UNL1        0.0768
     21 C         137.3286  141.2986  162.8581 C.3     1  UNL1        0.0173
     22 C         137.8938  140.9375  161.5165 C.3     1  UNL1        0.0576
     23 C         138.4140  141.9005  160.4907 C.3     1  UNL1        0.0174
     24 C         138.8798  141.1081  159.3052 C.3     1  UNL1        0.0187
     25 C         138.6474  139.6554  159.5984 C.3     1  UNL1        0.0721
     26 N         138.0380  139.5501  160.9650 N.3     1  UNL1       -0.2737
@<TRIPOS>BOND
     1    22    21    1
     2    22    23    1
     3    23    24    1
     4    24    25    1
     5    25    26    1
     6    26    20    1
     7    20    19    1
     8    19     1    1
     9     1     2   ar
    10     2     3   ar
    11     3     4   ar
    12     4     7    1
    13     7     8   ar
    14     8     9   ar
    15     9    10   ar
    16    10    13    1
    17    13    14    1
    18    13    15    2
    19    13    16    2
    20    10    11   ar
    21    11    12   ar
    22     4     5   ar
    23     5     6   ar
    24    26    22    1
    25     6     1   ar
    26    12     7   ar
    27    14    17    1
    28    14    18    1
@<TRIPOS>MOLECULE
*****
 26 28 0 0 0
SMALL
GASTEIGER

@<TRIPOS>ATOM
      1 C         140.1024  145.1299  162.7664 C.ar    1  UNL1       -0.0208
      2 C         138.7855  144.6902  163.3343 C.ar    1  UNL1       -0.0042
      3 C         138.7474  143.8483  164.5751 C.ar    1  UNL1       -0.0003
      4 C         140.0262  143.4461  165.2481 C.ar    1  UNL1       -0.0000
      5 C         141.3431  143.8858  164.6802 C.ar    1  UNL1       -0.0003
      6 C         141.3812  144.7277  163.4394 C.ar    1  UNL1       -0.0042
      7 C         139.9881  142.6042  166.4890 C.ar    1  UNL1        0.0001
      8 C         140.3076  143.2162  167.8207 C.ar    1  UNL1        0.0014
      9 C         140.2695  142.3742  169.0616 C.ar    1  UNL1        0.0199
     10 C         139.9118  140.9203  168.9707 C.ar    1  UNL1        0.1217
     11 C         139.5923  140.3084  167.6390 C.ar    1  UNL1        0.0199
     12 C         139.6305  141.1503  166.3982 C.ar    1  UNL1        0.0014
     13 S         139.8737  140.0784  170.2116 S.O2    1  UNL1        0.0572
     14 N         139.8356  139.2365  171.4524 N.3     1  UNL1       -0.2035
     15 O         141.2947  139.6619  169.9726 O.2     1  UNL1       -0.1532
     16 O         138.4527  140.4949  170.4505 O.2     1  UNL1       -0.1532
     17 H         140.7380  138.7786  171.5804 H       1  UNL1        0.1442
     18 H         139.1056  138.5299  171.3615 H       1  UNL1        0.1442
     19 C         140.1405  145.9718  161.5255 C.3     1  UNL1        0.0437
     20 C         140.3221  145.3239  160.1849 C.3     1  UNL1        0.0768
     21 C         138.5817  142.5651  160.2801 C.3     1  UNL1        0.0173
     22 C         140.0716  142.6631  160.1370 C.3     1  UNL1        0.0576
     23 C         141.0231  141.5102  160.0125 C.3     1  UNL1        0.0174
     24 C         142.4112  142.0658  159.8918 C.3     1  UNL1        0.0187
     25 C         142.3176  143.5621  159.9417 C.3     1  UNL1        0.0721
     26 N         140.8716  143.9312  160.0932 N.3     1  UNL1       -0.2737
@<TRIPOS>BOND
     1    22    21    1
     2    22    23    1
     3    23    24    1
     4    24    25    1
     5    25    26    1
     6    26    20    1
     7    20    19    1
     8    19     1    1
     9     1     2   ar
    10     2     3   ar
    11     3     4   ar
    12     4     7    1
    13     7     8   ar
    14     8     9   ar
    15     9    10   ar
    16    10    13    1
    17    13    14    1
    18    13    15    2
    19    13    16    2
    20    10    11   ar
    21    11    12   ar
    22     4     5   ar
    23     5     6   ar
    24    26    22    1
    25     6     1   ar
    26    12     7   ar
    27    14    17    1
    28    14    18    1
@<TRIPOS>MOLECULE
*****
 26 28 0 0 0
SMALL
GASTEIGER

@<TRIPOS>ATOM
      1 C         140.0678  143.9583  162.3217 C.ar    1  UNL1       -0.0208
      2 C         140.1645  142.4641  162.4105 C.ar    1  UNL1       -0.0042
      3 C         140.1103  141.7872  163.7479 C.ar    1  UNL1       -0.0003
      4 C         139.9593  142.6046  164.9966 C.ar    1  UNL1       -0.0000
      5 C         139.8626  144.0988  164.9078 C.ar    1  UNL1       -0.0003
      6 C         139.9168  144.7756  163.5703 C.ar    1  UNL1       -0.0042
      7 C         139.9050  141.9276  166.3341 C.ar    1  UNL1        0.0001
      8 C         139.3557  140.5366  166.4489 C.ar    1  UNL1        0.0014
      9 C         139.3015  139.8596  167.7865 C.ar    1  UNL1        0.0199
     10 C         139.7966  140.5738  169.0091 C.ar    1  UNL1        0.1217
     11 C         140.3459  141.9649  168.8942 C.ar    1  UNL1        0.0199
     12 C         140.4001  142.6418  167.5568 C.ar    1  UNL1        0.0014
     13 S         139.7423  139.8969  170.3466 S.O2    1  UNL1        0.0572
     14 N         139.6881  139.2201  171.6840 N.3     1  UNL1       -0.2035
     15 O         138.2438  139.9553  170.3154 O.2     1  UNL1       -0.1532
     16 O         141.2408  139.8385  170.3778 O.2     1  UNL1       -0.1532
     17 H         138.7151  139.1041  171.9672 H       1  UNL1        0.1442
     18 H         140.1773  139.7904  172.3738 H       1  UNL1        0.1442
     19 C         140.1220  144.6353  160.9842 C.3     1  UNL1        0.0437
     20 C         141.4460  145.0041  160.3834 C.3     1  UNL1        0.0768
     21 C         143.5663  144.5142  162.8152 C.3     1  UNL1        0.0173
     22 C         143.5470  143.7883  161.5028 C.3     1  UNL1        0.0576
     23 C         144.4989  142.7098  161.0776 C.3     1  UNL1        0.0174
     24 C         144.1126  142.2684  159.6970 C.3     1  UNL1        0.0187
     25 C         142.9219  143.0742  159.2689 C.3     1  UNL1        0.0721
     26 N         142.5725  144.0135  160.3850 N.3     1  UNL1       -0.2737
@<TRIPOS>BOND
     1    22    21    1
     2    22    23    1
     3    23    24    1
     4    24    25    1
     5    25    26    1
     6    26    20    1
     7    20    19    1
     8    19     1    1
     9     1     2   ar
    10     2     3   ar
    11     3     4   ar
    12     4     7    1
    13     7     8   ar
    14     8     9   ar
    15     9    10   ar
    16    10    13    1
    17    13    14    1
    18    13    15    2
    19    13    16    2
    20    10    11   ar
    21    11    12   ar
    22     4     5   ar
    23     5     6   ar
    24    26    22    1
    25     6     1   ar
    26    12     7   ar
    27    14    17    1
    28    14    18    1
@<TRIPOS>MOLECULE
*****
 26 28 0 0 0
SMALL
GASTEIGER

@<TRIPOS>ATOM
      1 C         139.9942  145.0323  162.6002 C.ar    1  UNL1       -0.0208
      2 C         138.7019  144.4797  163.1242 C.ar    1  UNL1       -0.0042
      3 C         138.6907  143.6637  164.3827 C.ar    1  UNL1       -0.0003
      4 C         139.9717  143.4004  165.1173 C.ar    1  UNL1       -0.0000
      5 C         141.2640  143.9530  164.5934 C.ar    1  UNL1       -0.0003
      6 C         141.2752  144.7690  163.3348 C.ar    1  UNL1       -0.0042
      7 C         139.9604  142.5844  166.3760 C.ar    1  UNL1        0.0001
      8 C         139.5514  141.1419  166.3310 C.ar    1  UNL1        0.0014
      9 C         139.5400  140.3259  167.5896 C.ar    1  UNL1        0.0199
     10 C         139.9378  140.9524  168.8932 C.ar    1  UNL1        0.1217
     11 C         140.3468  142.3949  168.9381 C.ar    1  UNL1        0.0199
     12 C         140.3581  143.2109  167.6796 C.ar    1  UNL1        0.0014
     13 S         139.9265  140.1365  170.1518 S.O2    1  UNL1        0.0572
     14 N         139.9152  139.3205  171.4104 N.3     1  UNL1       -0.2035
     15 O         138.4850  140.4903  170.3682 O.2     1  UNL1       -0.1532
     16 O         141.3680  139.7827  169.9353 O.2     1  UNL1       -0.1532
     17 H         138.9885  139.3625  171.8344 H       1  UNL1        0.1442
     18 H         140.6049  139.6928  172.0631 H       1  UNL1        0.1442
     19 C         140.0055  145.8483  161.3416 C.3     1  UNL1        0.0437
     20 C         140.8923  145.4519  160.1987 C.3     1  UNL1        0.0768
     21 C         139.3603  142.5976  159.8050 C.3     1  UNL1        0.0173
     22 C         139.5850  143.6315  158.7418 C.3     1  UNL1        0.0576
     23 C         139.1451  143.5350  157.3110 C.3     1  UNL1        0.0174
     24 C         139.5774  144.7874  156.6076 C.3     1  UNL1        0.0187
     25 C         140.2846  145.6580  157.6038 C.3     1  UNL1        0.0721
     26 N         140.2892  144.9435  158.9227 N.3     1  UNL1       -0.2737
@<TRIPOS>BOND
     1    22    21    1
     2    22    23    1
     3    23    24    1
     4    24    25    1
     5    25    26    1
     6    26    20    1
     7    20    19    1
     8    19     1    1
     9     1     2   ar
    10     2     3   ar
    11     3     4   ar
    12     4     7    1
    13     7     8   ar
    14     8     9   ar
    15     9    10   ar
    16    10    13    1
    17    13    14    1
    18    13    15    2
    19    13    16    2
    20    10    11   ar
    21    11    12   ar
    22     4     5   ar
    23     5     6   ar
    24    26    22    1
    25     6     1   ar
    26    12     7   ar
    27    14    17    1
    28    14    18    1
@<TRIPOS>MOLECULE
*****
 26 28 0 0 0
SMALL
GASTEIGER

@<TRIPOS>ATOM
      1 C         138.1098  139.2543  162.5678 C.ar    1  UNL1       -0.0208
      2 C         139.0769  138.2446  163.1110 C.ar    1  UNL1       -0.0042
      3 C         139.6829  138.4415  164.4689 C.ar    1  UNL1       -0.0003
      4 C         139.3219  139.6481  165.2835 C.ar    1  UNL1       -0.0000
      5 C         138.3548  140.6579  164.7403 C.ar    1  UNL1       -0.0003
      6 C         137.7487  140.4609  163.3824 C.ar    1  UNL1       -0.0042
      7 C         139.9279  139.8450  166.6415 C.ar    1  UNL1        0.0001
      8 C         139.0465  139.9158  167.8531 C.ar    1  UNL1        0.0014
      9 C         139.6526  140.1127  169.2111 C.ar    1  UNL1        0.0199
     10 C         141.1401  140.2388  169.3573 C.ar    1  UNL1        0.1217
     11 C         142.0216  140.1680  168.1456 C.ar    1  UNL1        0.0199
     12 C         141.4155  139.9711  166.7877 C.ar    1  UNL1        0.0014
     13 S         141.7462  140.4357  170.7152 S.O2    1  UNL1        0.0572
     14 N         142.3523  140.6325  172.0730 N.3     1  UNL1       -0.2035
     15 O         140.4323  140.9463  171.2276 O.2     1  UNL1       -0.1532
     16 O         143.0602  139.9250  170.2027 O.2     1  UNL1       -0.1532
     17 H         141.6473  141.0045  172.7094 H       1  UNL1        0.1442
     18 H         143.1302  141.2889  172.0062 H       1  UNL1        0.1442
     19 C         137.5037  139.0574  161.2098 C.3     1  UNL1        0.0437
     20 C         137.9927  139.8672  160.0457 C.3     1  UNL1        0.0768
     21 C         141.2260  139.6923  160.4515 C.3     1  UNL1        0.0173
     22 C         140.4029  140.9462  160.4604 C.3     1  UNL1        0.0576
     23 C         140.9214  142.3399  160.6573 C.3     1  UNL1        0.0174
     24 C         139.7557  143.2817  160.5926 C.3     1  UNL1        0.0187
     25 C         138.5166  142.4699  160.3555 C.3     1  UNL1        0.0721
     26 N         138.9167  141.0266  160.2739 N.3     1  UNL1       -0.2737
@<TRIPOS>BOND
     1    22    21    1
     2    22    23    1
     3    23    24    1
     4    24    25    1
     5    25    26    1
     6    26    20    1
     7    20    19    1
     8    19     1    1
     9     1     2   ar
    10     2     3   ar
    11     3     4   ar
    12     4     7    1
    13     7     8   ar
    14     8     9   ar
    15     9    10   ar
    16    10    13    1
    17    13    14    1
    18    13    15    2
    19    13    16    2
    20    10    11   ar
    21    11    12   ar
    22     4     5   ar
    23     5     6   ar
    24    26    22    1
    25     6     1   ar
    26    12     7   ar
    27    14    17    1
    28    14    18    1
@<TRIPOS>MOLECULE
*****
 26 28 0 0 0
SMALL
GASTEIGER

@<TRIPOS>ATOM
      1 C         137.8872  139.8686  162.4702 C.ar    1  UNL1       -0.0208
      2 C         137.5275  141.1649  163.1336 C.ar    1  UNL1       -0.0042
      3 C         138.0915  141.4987  164.4828 C.ar    1  UNL1       -0.0003
      4 C         139.0152  140.5362  165.1686 C.ar    1  UNL1       -0.0000
      5 C         139.3749  139.2400  164.5052 C.ar    1  UNL1       -0.0003
      6 C         138.8109  138.9061  163.1560 C.ar    1  UNL1       -0.0042
      7 C         139.5792  140.8701  166.5179 C.ar    1  UNL1        0.0001
      8 C         140.2593  142.1882  166.7412 C.ar    1  UNL1        0.0014
      9 C         140.8233  142.5221  168.0905 C.ar    1  UNL1        0.0199
     10 C         140.7071  141.5378  169.2164 C.ar    1  UNL1        0.1217
     11 C         140.0270  140.2196  168.9930 C.ar    1  UNL1        0.0199
     12 C         139.4630  139.8858  167.6438 C.ar    1  UNL1        0.0014
     13 S         141.2711  141.8716  170.5656 S.O2    1  UNL1        0.0572
     14 N         141.8351  142.2054  171.9149 N.3     1  UNL1       -0.2035
     15 O         140.2709  140.9580  171.2097 O.2     1  UNL1       -0.1532
     16 O         142.2713  142.7851  169.9216 O.2     1  UNL1       -0.1532
     17 H         141.3216  141.6953  172.6337 H       1  UNL1        0.1442
     18 H         141.7477  143.2079  172.0814 H       1  UNL1        0.1442
     19 C         137.3232  139.5348  161.1209 C.3     1  UNL1        0.0437
     20 C         137.9910  140.0499  159.8805 C.3     1  UNL1        0.0768
     21 C         140.6644  141.6216  160.8963 C.3     1  UNL1        0.0173
     22 C         140.6376  140.3877  160.0439 C.3     1  UNL1        0.0576
     23 C         141.8348  139.6595  159.5088 C.3     1  UNL1        0.0174
     24 C         141.3459  138.4870  158.7111 C.3     1  UNL1        0.0187
     25 C         139.8464  138.4905  158.7533 C.3     1  UNL1        0.0721
     26 N         139.4087  139.6652  159.5770 N.3     1  UNL1       -0.2737
@<TRIPOS>BOND
     1    22    21    1
     2    22    23    1
     3    23    24    1
     4    24    25    1
     5    25    26    1
     6    26    20    1
     7    20    19    1
     8    19     1    1
     9     1     2   ar
    10     2     3   ar
    11     3     4   ar
    12     4     7    1
    13     7     8   ar
    14     8     9   ar
    15     9    10   ar
    16    10    13    1
    17    13    14    1
    18    13    15    2
    19    13    16    2
    20    10    11   ar
    21    11    12   ar
    22     4     5   ar
    23     5     6   ar
    24    26    22    1
    25     6     1   ar
    26    12     7   ar
    27    14    17    1
    28    14    18    1
@<TRIPOS>MOLECULE
*****
 26 28 0 0 0
SMALL
GASTEIGER

@<TRIPOS>ATOM
      1 C         142.9134  138.0859  162.2576 C.ar    1  UNL1       -0.0208
      2 C         141.6508  137.5911  162.8987 C.ar    1  UNL1       -0.0042
      3 C         141.3141  137.9964  164.3031 C.ar    1  UNL1       -0.0003
      4 C         142.2400  138.8963  165.0664 C.ar    1  UNL1       -0.0000
      5 C         143.5026  139.3911  164.4254 C.ar    1  UNL1       -0.0003
      6 C         143.8393  138.9859  163.0210 C.ar    1  UNL1       -0.0042
      7 C         141.9033  139.3016  166.4709 C.ar    1  UNL1        0.0001
      8 C         140.5617  139.8980  166.7782 C.ar    1  UNL1        0.0014
      9 C         140.2250  140.3032  168.1827 C.ar    1  UNL1        0.0199
     10 C         141.2299  140.1120  169.2798 C.ar    1  UNL1        0.1217
     11 C         142.5715  139.5155  168.9724 C.ar    1  UNL1        0.0199
     12 C         142.9082  139.1104  167.5680 C.ar    1  UNL1        0.0014
     13 S         140.8932  140.5172  170.6842 S.O2    1  UNL1        0.0572
     14 N         140.5565  140.9224  172.0886 N.3     1  UNL1       -0.2035
     15 O         139.8172  139.4730  170.7275 O.2     1  UNL1       -0.1532
     16 O         141.9692  141.5614  170.6409 O.2     1  UNL1       -0.1532
     17 H         139.7904  140.3448  172.4347 H       1  UNL1        0.1442
     18 H         140.2758  141.9029  172.1016 H       1  UNL1        0.1442
     19 C         143.2501  137.6807  160.8532 C.3     1  UNL1        0.0437
     20 C         142.7466  138.4929  159.6970 C.3     1  UNL1        0.0768
     21 C         142.1393  141.5036  160.7998 C.3     1  UNL1        0.0173
     22 C         141.1209  140.5335  160.2787 C.3     1  UNL1        0.0576
     23 C         139.6445  140.7768  160.1730 C.3     1  UNL1        0.0174
     24 C         139.0112  139.5433  159.6007 C.3     1  UNL1        0.0187
     25 C         140.0962  138.5376  159.3528 C.3     1  UNL1        0.0721
     26 N         141.4000  139.1496  159.7718 N.3     1  UNL1       -0.2737
@<TRIPOS>BOND
     1    22    21    1
     2    22    23    1
     3    23    24    1
     4    24    25    1
     5    25    26    1
     6    26    20    1
     7    20    19    1
     8    19     1    1
     9     1     2   ar
    10     2     3   ar
    11     3     4   ar
    12     4     7    1
    13     7     8   ar
    14     8     9   ar
    15     9    10   ar
    16    10    13    1
    17    13    14    1
    18    13    15    2
    19    13    16    2
    20    10    11   ar
    21    11    12   ar
    22     4     5   ar
    23     5     6   ar
    24    26    22    1
    25     6     1   ar
    26    12     7   ar
    27    14    17    1
    28    14    18    1
@<TRIPOS>MOLECULE
*****
 26 28 0 0 0
SMALL
GASTEIGER

@<TRIPOS>ATOM
      1 C         139.5035  138.4519  162.0999 C.ar    1  UNL1       -0.0208
      2 C         138.9119  137.6715  163.2360 C.ar    1  UNL1       -0.0042
      3 C         139.2915  138.0000  164.6494 C.ar    1  UNL1       -0.0003
      4 C         140.2628  139.1089  164.9268 C.ar    1  UNL1       -0.0000
      5 C         140.8545  139.8893  163.7907 C.ar    1  UNL1       -0.0003
      6 C         140.4749  139.5608  162.3772 C.ar    1  UNL1       -0.0042
      7 C         140.6425  139.4373  166.3404 C.ar    1  UNL1        0.0001
      8 C         142.0779  139.3602  166.7686 C.ar    1  UNL1        0.0014
      9 C         142.4575  139.6887  168.1822 C.ar    1  UNL1        0.0199
     10 C         141.4017  140.0942  169.1674 C.ar    1  UNL1        0.1217
     11 C         139.9661  140.1713  168.7391 C.ar    1  UNL1        0.0199
     12 C         139.5866  139.8428  167.3256 C.ar    1  UNL1        0.0014
     13 S         141.7812  140.4226  170.5809 S.O2    1  UNL1        0.0572
     14 N         142.1608  140.7511  171.9944 N.3     1  UNL1       -0.2035
     15 O         143.2284  140.2296  170.2371 O.2     1  UNL1       -0.1532
     16 O         140.3340  140.6157  170.9247 O.2     1  UNL1       -0.1532
     17 H         143.1747  140.7018  172.0944 H       1  UNL1        0.1442
     18 H         141.7237  140.0819  172.6281 H       1  UNL1        0.1442
     19 C         139.1239  138.1235  160.6863 C.3     1  UNL1        0.0437
     20 C         139.6575  138.9511  159.5548 C.3     1  UNL1        0.0768
     21 C         142.9037  138.6263  159.6295 C.3     1  UNL1        0.0173
     22 C         141.9966  138.1643  158.5279 C.3     1  UNL1        0.0576
     23 C         142.4223  137.4718  157.2672 C.3     1  UNL1        0.0174
     24 C         141.1931  137.1931  156.4537 C.3     1  UNL1        0.0187
     25 C         140.0078  137.7134  157.2117 C.3     1  UNL1        0.0721
     26 N         140.5044  138.3136  158.4936 N.3     1  UNL1       -0.2737
@<TRIPOS>BOND
     1    22    21    1
     2    22    23    1
     3    23    24    1
     4    24    25    1
     5    25    26    1
     6    26    20    1
     7    20    19    1
     8    19     1    1
     9     1     2   ar
    10     2     3   ar
    11     3     4   ar
    12     4     7    1
    13     7     8   ar
    14     8     9   ar
    15     9    10   ar
    16    10    13    1
    17    13    14    1
    18    13    15    2
    19    13    16    2
    20    10    11   ar
    21    11    12   ar
    22     4     5   ar
    23     5     6   ar
    24    26    22    1
    25     6     1   ar
    26    12     7   ar
    27    14    17    1
    28    14    18    1
@<TRIPOS>MOLECULE
*****
 26 28 0 0 0
SMALL
GASTEIGER

@<TRIPOS>ATOM
      1 C         142.9371  138.0641  162.0051 C.ar    1  UNL1       -0.0208
      2 C         143.9261  138.8157  162.8458 C.ar    1  UNL1       -0.0042
      3 C         143.5828  139.1834  164.2589 C.ar    1  UNL1       -0.0003
      4 C         142.2505  138.7996  164.8312 C.ar    1  UNL1       -0.0000
      5 C         141.2614  138.0480  163.9905 C.ar    1  UNL1       -0.0003
      6 C         141.6048  137.6803  162.5774 C.ar    1  UNL1       -0.0042
      7 C         141.9072  139.1674  166.2444 C.ar    1  UNL1        0.0001
      8 C         142.9512  139.0771  167.3176 C.ar    1  UNL1        0.0014
      9 C         142.6079  139.4448  168.7308 C.ar    1  UNL1        0.0199
     10 C         141.2205  139.9029  169.0706 C.ar    1  UNL1        0.1217
     11 C         140.1765  139.9932  167.9973 C.ar    1  UNL1        0.0199
     12 C         140.5198  139.6254  166.5842 C.ar    1  UNL1        0.0014
     13 S         140.8772  140.2707  170.4837 S.O2    1  UNL1        0.0572
     14 N         140.5339  140.6385  171.8968 N.3     1  UNL1       -0.2035
     15 O         139.4376  139.9430  170.2192 O.2     1  UNL1       -0.1532
     16 O         142.3168  140.5984  170.7482 O.2     1  UNL1       -0.1532
     17 H         139.5331  140.5117  172.0475 H       1  UNL1        0.1442
     18 H         140.7821  141.6135  172.0642 H       1  UNL1        0.1442
     19 C         143.2804  137.6963  160.5919 C.3     1  UNL1        0.0437
     20 C         142.9521  138.6375  159.4711 C.3     1  UNL1        0.0768
     21 C         143.8689  141.6440  160.3483 C.3     1  UNL1        0.0173
     22 C         142.4601  141.1844  160.1164 C.3     1  UNL1        0.0576
     23 C         141.2253  142.0260  160.2470 C.3     1  UNL1        0.0174
     24 C         140.0407  141.1642  159.9245 C.3     1  UNL1        0.0187
     25 C         140.5434  139.7899  159.5946 C.3     1  UNL1        0.0721
     26 N         142.0386  139.8025  159.7132 N.3     1  UNL1       -0.2737
@<TRIPOS>BOND
     1    22    21    1
     2    22    23    1
     3    23    24    1
     4    24    25    1
     5    25    26    1
     6    26    20    1
     7    20    19    1
     8    19     1    1
     9     1     2   ar
    10     2     3   ar
    11     3     4   ar
    12     4     7    1
    13     7     8   ar
    14     8     9   ar
    15     9    10   ar
    16    10    13    1
    17    13    14    1
    18    13    15    2
    19    13    16    2
    20    10    11   ar
    21    11    12   ar
    22     4     5   ar
    23     5     6   ar
    24    26    22    1
    25     6     1   ar
    26    12     7   ar
    27    14    17    1
    28    14    18    1
