@<TRIPOS>MOLECULE
*****
 35 39 0 0 0
SMALL
GASTEIGER

@<TRIPOS>ATOM
      1 N         141.5719  140.4925  162.5710 N.ar    1  UNL1       -0.3047
      2 C         140.6808  139.2921  162.6926 C.ar    1  UNL1        0.1441
      3 N         140.8260  138.4784  161.4409 N.ar    1  UNL1       -0.2267
      4 C         141.8069  139.1759  160.5457 C.ar    1  UNL1        0.1010
      5 C         142.3398  138.8384  159.1849 C.ar    1  UNL1        0.0526
      6 C         143.3338  139.7457  158.5225 C.ar    1  UNL1        0.1690
      7 F         143.8668  139.4082  157.1615 F       1  UNL1       -0.2017
      8 C         143.7948  140.9906  159.2209 C.ar    1  UNL1        0.1689
      9 F         144.7888  141.8979  158.5585 F       1  UNL1       -0.2017
     10 C         143.2619  141.3281  160.5818 C.ar    1  UNL1        0.0507
     11 C         142.2679  140.4208  161.2442 C.ar    1  UNL1        0.0816
     12 C         139.7993  138.9631  163.8608 C.ar    1  UNL1        0.0342
     13 C         138.9030  140.0151  164.4438 C.ar    1  UNL1        0.0039
     14 C         138.0215  139.6862  165.6119 C.ar    1  UNL1        0.0115
     15 C         138.0361  138.3051  166.1971 C.ar    1  UNL1        0.0577
     16 CL        137.1546  137.9761  167.3653 Cl      1  UNL1       -0.0822
     17 C         138.9324  137.2531  165.6141 C.ar    1  UNL1        0.0115
     18 C         139.8139  137.5821  164.4460 C.ar    1  UNL1        0.0039
     19 C         141.7380  141.5748  163.5963 C.3     1  UNL1        0.1628
     20 C         141.3378  142.9834  163.2715 C.3     1  UNL1        0.0297
     21 C         140.1116  143.2437  162.4475 C.3     1  UNL1        0.0024
     22 C         139.7113  144.6523  162.1227 C.3     1  UNL1        0.0001
     23 C         140.5372  145.8007  162.6220 C.3     1  UNL1        0.0000
     24 C         141.7632  145.5405  163.4459 C.3     1  UNL1        0.0001
     25 C         142.1636  144.1318  163.7707 C.3     1  UNL1        0.0024
     26 O         143.5979  140.6528  165.4176 O.2     1  UNL1       -0.2731
     27 C         142.3043  141.2484  164.9465 C.2     1  UNL1        0.2431
     28 N         141.5037  141.5293  166.1835 N.am    1  UNL1       -0.3044
     29 H         140.6066  141.9279  166.1093 H       1  UNL1        0.1494
     30 C         142.0701  141.2029  167.5335 C.3     1  UNL1        0.0716
     31 C         142.8749  142.2275  168.2768 C.3     1  UNL1        0.0196
     32 C         143.4413  141.9011  169.6269 C.3     1  UNL1        0.0017
     33 C         143.2030  140.5502  170.2337 C.3     1  UNL1        0.0001
     34 C         142.3981  139.5256  169.4903 C.3     1  UNL1        0.0017
     35 C         141.8317  139.8519  168.1402 C.3     1  UNL1        0.0196
@<TRIPOS>BOND
     1    26    27    2
     2    27    28   am
     3    28    30    1
     4    30    31    1
     5    31    32    1
     6    32    33    1
     7    33    34    1
     8    34    35    1
     9    27    19    1
    10    19    20    1
    11    20    21    1
    12    21    22    1
    13    22    23    1
    14    23    24    1
    15    24    25    1
    16    19     1    1
    17     1     2   ar
    18     2    12    1
    19    12    13   ar
    20    13    14   ar
    21    14    15   ar
    22    15    16    1
    23    15    17   ar
    24    17    18   ar
    25     2     3   ar
    26     3     4   ar
    27     4     5   ar
    28     5     6   ar
    29     6     7    1
    30     6     8   ar
    31     8     9    1
    32     8    10   ar
    33    10    11   ar
    34    35    30    1
    35    25    20    1
    36    11     1   ar
    37    18    12   ar
    38    11     4   ar
    39    28    29    1
@<TRIPOS>MOLECULE
*****
 35 39 0 0 0
SMALL
GASTEIGER

@<TRIPOS>ATOM
      1 N         140.3917  141.9502  162.8696 N.ar    1  UNL1       -0.3047
      2 C         139.2948  140.9359  162.7355 C.ar    1  UNL1        0.1441
      3 N         138.6189  141.1560  161.4147 N.ar    1  UNL1       -0.2267
      4 C         139.2980  142.3064  160.7324 C.ar    1  UNL1        0.1010
      5 C         139.0602  142.9703  159.4086 C.ar    1  UNL1        0.0526
      6 C         139.9180  144.1251  158.9839 C.ar    1  UNL1        0.1690
      7 F         139.6803  144.7891  157.6600 F       1  UNL1       -0.2017
      8 C         141.0137  144.6160  159.8831 C.ar    1  UNL1        0.1689
      9 F         141.8716  145.7709  159.4584 F       1  UNL1       -0.2017
     10 C         141.2515  143.9521  161.2069 C.ar    1  UNL1        0.0507
     11 C         140.3936  142.7973  161.6316 C.ar    1  UNL1        0.0816
     12 C         138.9368  139.8858  163.7450 C.ar    1  UNL1        0.0342
     13 C         138.2327  140.2724  165.0118 C.ar    1  UNL1        0.0039
     14 C         137.8747  139.2223  166.0214 C.ar    1  UNL1        0.0115
     15 C         138.2208  137.7856  165.7641 C.ar    1  UNL1        0.0577
     16 CL        137.8627  136.7355  166.7736 Cl      1  UNL1       -0.0822
     17 C         138.9248  137.3991  164.4973 C.ar    1  UNL1        0.0115
     18 C         139.2829  138.4491  163.4878 C.ar    1  UNL1        0.0039
     19 C         141.3231  142.0926  164.0367 C.3     1  UNL1        0.1628
     20 C         142.8026  141.9467  163.8377 C.3     1  UNL1        0.0297
     21 C         143.3420  140.8002  163.0347 C.3     1  UNL1        0.0024
     22 C         144.8215  140.6543  162.8357 C.3     1  UNL1        0.0001
     23 C         145.7618  141.6549  163.4397 C.3     1  UNL1        0.0000
     24 C         145.2225  142.8013  164.2427 C.3     1  UNL1        0.0001
     25 C         143.7429  142.9472  164.4417 C.3     1  UNL1        0.0024
     26 O         139.7548  143.3435  165.9346 O.2     1  UNL1       -0.2731
     27 C         140.7750  142.3809  165.4029 C.2     1  UNL1        0.2431
     28 N         141.2707  141.6072  166.5885 N.am    1  UNL1       -0.3044
     29 H         141.9558  140.9102  166.4701 H       1  UNL1        0.1494
     30 C         140.7225  141.8955  167.9547 C.3     1  UNL1        0.0716
     31 C         141.0667  143.1822  168.6446 C.3     1  UNL1        0.0196
     32 C         140.5185  143.4706  170.0108 C.3     1  UNL1        0.0017
     33 C         139.6262  142.4724  170.6870 C.3     1  UNL1        0.0001
     34 C         139.2821  141.1857  169.9970 C.3     1  UNL1        0.0017
     35 C         139.8302  140.8973  168.6309 C.3     1  UNL1        0.0196
@<TRIPOS>BOND
     1    26    27    2
     2    27    28   am
     3    28    30    1
     4    30    31    1
     5    31    32    1
     6    32    33    1
     7    33    34    1
     8    34    35    1
     9    27    19    1
    10    19    20    1
    11    20    21    1
    12    21    22    1
    13    22    23    1
    14    23    24    1
    15    24    25    1
    16    19     1    1
    17     1     2   ar
    18     2    12    1
    19    12    13   ar
    20    13    14   ar
    21    14    15   ar
    22    15    16    1
    23    15    17   ar
    24    17    18   ar
    25     2     3   ar
    26     3     4   ar
    27     4     5   ar
    28     5     6   ar
    29     6     7    1
    30     6     8   ar
    31     8     9    1
    32     8    10   ar
    33    10    11   ar
    34    35    30    1
    35    25    20    1
    36    11     1   ar
    37    18    12   ar
    38    11     4   ar
    39    28    29    1
@<TRIPOS>MOLECULE
*****
 35 39 0 0 0
SMALL
GASTEIGER

@<TRIPOS>ATOM
      1 N         141.9762  140.9094  165.0234 N.ar    1  UNL1       -0.3047
      2 C         142.4671  139.5296  164.6990 C.ar    1  UNL1        0.1441
      3 N         142.8366  138.8545  165.9866 N.ar    1  UNL1       -0.2267
      4 C         142.5741  139.8171  167.1067 C.ar    1  UNL1        0.1010
      5 C         142.7505  139.7011  168.5917 C.ar    1  UNL1        0.0526
      6 C         142.3952  140.8552  169.4815 C.ar    1  UNL1        0.1690
      7 F         142.5716  140.7394  170.9666 F       1  UNL1       -0.2017
      8 C         141.8634  142.1252  168.8862 C.ar    1  UNL1        0.1689
      9 F         141.5080  143.2794  169.7761 F       1  UNL1       -0.2017
     10 C         141.6870  142.2411  167.4012 C.ar    1  UNL1        0.0507
     11 C         142.0423  141.0871  166.5114 C.ar    1  UNL1        0.0816
     12 C         142.5704  138.9302  163.3279 C.ar    1  UNL1        0.0342
     13 C         143.9178  138.6873  162.7151 C.ar    1  UNL1        0.0039
     14 C         144.0211  138.0879  161.3440 C.ar    1  UNL1        0.0115
     15 C         142.7770  137.7314  160.5856 C.ar    1  UNL1        0.0577
     16 CL        142.8803  137.1320  159.2145 Cl      1  UNL1       -0.0822
     17 C         141.4296  137.9743  161.1984 C.ar    1  UNL1        0.0115
     18 C         141.3263  138.5737  162.5695 C.ar    1  UNL1        0.0039
     19 C         141.5024  141.9320  164.0336 C.3     1  UNL1        0.1628
     20 C         140.2361  142.6939  164.2903 C.3     1  UNL1        0.0297
     21 C         138.9120  141.9918  164.2250 C.3     1  UNL1        0.0024
     22 C         137.6457  142.7537  164.4817 C.3     1  UNL1        0.0001
     23 C         137.7033  144.2176  164.8036 C.3     1  UNL1        0.0000
     24 C         139.0272  144.9196  164.8689 C.3     1  UNL1        0.0001
     25 C         140.2936  144.1578  164.6122 C.3     1  UNL1        0.0024
     26 O         143.6804  142.7023  162.5205 O.2     1  UNL1       -0.2731
     27 C         142.2950  142.1928  162.7870 C.2     1  UNL1        0.2431
     28 N         141.6860  141.9280  161.4420 N.am    1  UNL1       -0.3044
     29 H         140.7662  141.5830  161.3773 H       1  UNL1        0.1494
     30 C         142.4786  142.1888  160.1955 C.3     1  UNL1        0.0716
     31 C         142.3109  143.4838  159.4574 C.3     1  UNL1        0.0196
     32 C         143.1035  143.7447  158.2108 C.3     1  UNL1        0.0017
     33 C         144.0638  142.7106  157.7024 C.3     1  UNL1        0.0001
     34 C         144.2315  141.4156  158.4406 C.3     1  UNL1        0.0017
     35 C         143.4389  141.1547  159.6871 C.3     1  UNL1        0.0196
@<TRIPOS>BOND
     1    26    27    2
     2    27    28   am
     3    28    30    1
     4    30    31    1
     5    31    32    1
     6    32    33    1
     7    33    34    1
     8    34    35    1
     9    27    19    1
    10    19    20    1
    11    20    21    1
    12    21    22    1
    13    22    23    1
    14    23    24    1
    15    24    25    1
    16    19     1    1
    17     1     2   ar
    18     2    12    1
    19    12    13   ar
    20    13    14   ar
    21    14    15   ar
    22    15    16    1
    23    15    17   ar
    24    17    18   ar
    25     2     3   ar
    26     3     4   ar
    27     4     5   ar
    28     5     6   ar
    29     6     7    1
    30     6     8   ar
    31     8     9    1
    32     8    10   ar
    33    10    11   ar
    34    35    30    1
    35    25    20    1
    36    11     1   ar
    37    18    12   ar
    38    11     4   ar
    39    28    29    1
@<TRIPOS>MOLECULE
*****
 35 39 0 0 0
SMALL
GASTEIGER

@<TRIPOS>ATOM
      1 N         141.6612  141.6671  165.8649 N.ar    1  UNL1       -0.3047
      2 C         143.0218  142.1838  165.5022 C.ar    1  UNL1        0.1441
      3 N         143.7223  142.5746  166.7697 N.ar    1  UNL1       -0.2267
      4 C         142.7945  142.2994  167.9158 C.ar    1  UNL1        0.1010
      5 C         142.9451  142.4870  169.3963 C.ar    1  UNL1        0.0526
      6 C         141.8218  142.1138  170.3177 C.ar    1  UNL1        0.1690
      7 F         141.9724  142.3015  171.7983 F       1  UNL1       -0.2017
      8 C         140.5480  141.5530  169.7585 C.ar    1  UNL1        0.1689
      9 F         139.4246  141.1798  170.6799 F       1  UNL1       -0.2017
     10 C         140.3974  141.3653  168.2779 C.ar    1  UNL1        0.0507
     11 C         141.5207  141.7385  167.3566 C.ar    1  UNL1        0.0816
     12 C         143.5834  142.2909  164.1154 C.ar    1  UNL1        0.0342
     13 C         143.7813  143.6391  163.4884 C.ar    1  UNL1        0.0039
     14 C         144.3429  143.7463  162.1016 C.ar    1  UNL1        0.0115
     15 C         144.7066  142.5052  161.3418 C.ar    1  UNL1        0.0577
     16 CL        145.2682  142.6123  159.9551 Cl      1  UNL1       -0.0822
     17 C         144.5088  141.1570  161.9688 C.ar    1  UNL1        0.0115
     18 C         143.9472  141.0498  163.3556 C.ar    1  UNL1        0.0039
     19 C         140.6232  141.1668  164.9045 C.3     1  UNL1        0.1628
     20 C         139.9152  139.8719  165.1728 C.3     1  UNL1        0.0297
     21 C         138.6410  139.8637  165.9643 C.3     1  UNL1        0.0024
     22 C         137.9330  138.5688  166.2326 C.3     1  UNL1        0.0001
     23 C         138.4992  137.2821  165.7093 C.3     1  UNL1        0.0000
     24 C         139.7733  137.2903  164.9179 C.3     1  UNL1        0.0001
     25 C         140.4813  138.5852  164.6496 C.3     1  UNL1        0.0024
     26 O         139.6755  143.3080  163.4404 O.2     1  UNL1       -0.2731
     27 C         140.2931  141.9615  163.6758 C.2     1  UNL1        0.2431
     28 N         140.5956  141.4022  162.3172 N.am    1  UNL1       -0.3044
     29 H         141.0107  140.5136  162.2319 H       1  UNL1        0.1494
     30 C         140.2655  142.1969  161.0886 C.3     1  UNL1        0.0716
     31 C         141.2156  143.2489  160.5983 C.3     1  UNL1        0.0196
     32 C         140.8856  144.0437  159.3696 C.3     1  UNL1        0.0017
     33 C         139.6055  143.7864  158.6314 C.3     1  UNL1        0.0001
     34 C         138.6554  142.7343  159.1218 C.3     1  UNL1        0.0017
     35 C         138.9854  141.9396  160.3504 C.3     1  UNL1        0.0196
@<TRIPOS>BOND
     1    26    27    2
     2    27    28   am
     3    28    30    1
     4    30    31    1
     5    31    32    1
     6    32    33    1
     7    33    34    1
     8    34    35    1
     9    27    19    1
    10    19    20    1
    11    20    21    1
    12    21    22    1
    13    22    23    1
    14    23    24    1
    15    24    25    1
    16    19     1    1
    17     1     2   ar
    18     2    12    1
    19    12    13   ar
    20    13    14   ar
    21    14    15   ar
    22    15    16    1
    23    15    17   ar
    24    17    18   ar
    25     2     3   ar
    26     3     4   ar
    27     4     5   ar
    28     5     6   ar
    29     6     7    1
    30     6     8   ar
    31     8     9    1
    32     8    10   ar
    33    10    11   ar
    34    35    30    1
    35    25    20    1
    36    11     1   ar
    37    18    12   ar
    38    11     4   ar
    39    28    29    1
@<TRIPOS>MOLECULE
*****
 35 39 0 0 0
SMALL
GASTEIGER

@<TRIPOS>ATOM
      1 N         141.0631  138.7021  158.7334 N.ar    1  UNL1       -0.3047
      2 C         142.4509  138.3620  159.1897 C.ar    1  UNL1        0.1441
      3 N         143.0194  137.3554  158.2338 N.ar    1  UNL1       -0.2267
      4 C         141.9829  137.0734  157.1868 C.ar    1  UNL1        0.1010
      5 C         141.9839  136.1663  155.9922 C.ar    1  UNL1        0.0526
      6 C         140.7758  136.0915  155.1064 C.ar    1  UNL1        0.1690
      7 F         140.7767  135.1844  153.9117 F       1  UNL1       -0.2017
      8 C         139.5667  136.9239  155.4151 C.ar    1  UNL1        0.1689
      9 F         138.3585  136.8490  154.5292 F       1  UNL1       -0.2017
     10 C         139.5657  137.8310  156.6097 C.ar    1  UNL1        0.0507
     11 C         140.7738  137.9057  157.4956 C.ar    1  UNL1        0.0816
     12 C         143.1479  138.9289  160.3908 C.ar    1  UNL1        0.0342
     13 C         143.2980  138.0997  161.6317 C.ar    1  UNL1        0.0039
     14 C         143.9950  138.6666  162.8329 C.ar    1  UNL1        0.0115
     15 C         144.5419  140.0627  162.7932 C.ar    1  UNL1        0.0577
     16 CL        145.2389  140.6296  163.9944 Cl      1  UNL1       -0.0822
     17 C         144.3918  140.8920  161.5523 C.ar    1  UNL1        0.0115
     18 C         143.6948  140.3250  160.3511 C.ar    1  UNL1        0.0039
     19 C         140.1285  139.6689  159.3982 C.3     1  UNL1        0.1628
     20 C         139.8322  140.9900  158.7527 C.3     1  UNL1        0.0297
     21 C         140.9454  141.9575  158.4788 C.3     1  UNL1        0.0024
     22 C         140.6491  143.2787  157.8333 C.3     1  UNL1        0.0001
     23 C         139.2395  143.6324  157.4617 C.3     1  UNL1        0.0000
     24 C         138.1264  142.6650  157.7355 C.3     1  UNL1        0.0001
     25 C         138.4227  141.3438  158.3810 C.3     1  UNL1        0.0024
     26 O         138.2084  138.6375  161.0940 O.2     1  UNL1       -0.2731
     27 C         139.4903  139.3145  160.7086 C.2     1  UNL1        0.2431
     28 N         140.1807  139.6559  161.9958 N.am    1  UNL1       -0.3044
     29 H         141.0527  140.1126  161.9805 H       1  UNL1        0.1494
     30 C         139.5424  139.3015  163.3061 C.3     1  UNL1        0.0716
     31 C         138.7801  140.3403  164.0742 C.3     1  UNL1        0.0196
     32 C         138.1418  139.9859  165.3846 C.3     1  UNL1        0.0017
     33 C         138.2657  138.5929  165.9268 C.3     1  UNL1        0.0001
     34 C         139.0281  137.5542  165.1586 C.3     1  UNL1        0.0017
     35 C         139.6664  137.9085  163.8483 C.3     1  UNL1        0.0196
@<TRIPOS>BOND
     1    26    27    2
     2    27    28   am
     3    28    30    1
     4    30    31    1
     5    31    32    1
     6    32    33    1
     7    33    34    1
     8    34    35    1
     9    27    19    1
    10    19    20    1
    11    20    21    1
    12    21    22    1
    13    22    23    1
    14    23    24    1
    15    24    25    1
    16    19     1    1
    17     1     2   ar
    18     2    12    1
    19    12    13   ar
    20    13    14   ar
    21    14    15   ar
    22    15    16    1
    23    15    17   ar
    24    17    18   ar
    25     2     3   ar
    26     3     4   ar
    27     4     5   ar
    28     5     6   ar
    29     6     7    1
    30     6     8   ar
    31     8     9    1
    32     8    10   ar
    33    10    11   ar
    34    35    30    1
    35    25    20    1
    36    11     1   ar
    37    18    12   ar
    38    11     4   ar
    39    28    29    1
@<TRIPOS>MOLECULE
*****
 35 39 0 0 0
SMALL
GASTEIGER

@<TRIPOS>ATOM
      1 N         140.7570  139.8421  162.5409 N.ar    1  UNL1       -0.3047
      2 C         140.4089  138.6879  161.6483 C.ar    1  UNL1        0.1441
      3 N         139.5259  137.7539  162.4216 N.ar    1  UNL1       -0.2267
      4 C         139.3283  138.3308  163.7920 C.ar    1  UNL1        0.1010
      5 C         138.5538  137.8476  164.9822 C.ar    1  UNL1        0.0526
      6 C         138.5401  138.6551  166.2463 C.ar    1  UNL1        0.1690
      7 F         137.7656  138.1720  167.4366 F       1  UNL1       -0.2017
      8 C         139.3010  139.9457  166.3200 C.ar    1  UNL1        0.1689
      9 F         139.2873  140.7532  167.5841 F       1  UNL1       -0.2017
     10 C         140.0755  140.4288  165.1298 C.ar    1  UNL1        0.0507
     11 C         140.0891  139.6214  163.8658 C.ar    1  UNL1        0.0816
     12 C         140.8640  138.5007  160.2313 C.ar    1  UNL1        0.0342
     13 C         142.2813  138.1015  159.9453 C.ar    1  UNL1        0.0039
     14 C         142.7363  137.9142  158.5283 C.ar    1  UNL1        0.0115
     15 C         141.7740  138.1262  157.3973 C.ar    1  UNL1        0.0577
     16 CL        142.2291  137.9389  155.9804 Cl      1  UNL1       -0.0822
     17 C         140.3567  138.5254  157.6834 C.ar    1  UNL1        0.0115
     18 C         139.9017  138.7126  159.1004 C.ar    1  UNL1        0.0039
     19 C         141.6212  141.0117  162.1733 C.3     1  UNL1        0.1628
     20 C         142.9992  141.1374  162.7521 C.3     1  UNL1        0.0297
     21 C         143.6744  142.4761  162.7976 C.3     1  UNL1        0.0024
     22 C         145.0525  142.6018  163.3764 C.3     1  UNL1        0.0001
     23 C         145.7554  141.3888  163.9099 C.3     1  UNL1        0.0000
     24 C         145.0803  140.0501  163.8644 C.3     1  UNL1        0.0001
     25 C         143.7022  139.9244  163.2855 C.3     1  UNL1        0.0024
     26 O         140.1092  143.1692  161.3452 O.2     1  UNL1       -0.2731
     27 C         141.1073  142.0557  161.2266 C.2     1  UNL1        0.2431
     28 N         141.6223  142.1103  159.8188 N.am    1  UNL1       -0.3044
     29 H         142.2975  141.4610  159.5161 H       1  UNL1        0.1494
     30 C         141.1084  143.1543  158.8723 C.3     1  UNL1        0.0716
     31 C         139.9453  142.8470  157.9764 C.3     1  UNL1        0.0196
     32 C         139.4313  143.8910  157.0297 C.3     1  UNL1        0.0017
     33 C         140.0804  145.2423  156.9791 C.3     1  UNL1        0.0001
     34 C         141.2436  145.5496  157.8751 C.3     1  UNL1        0.0017
     35 C         141.7575  144.5056  158.8217 C.3     1  UNL1        0.0196
@<TRIPOS>BOND
     1    26    27    2
     2    27    28   am
     3    28    30    1
     4    30    31    1
     5    31    32    1
     6    32    33    1
     7    33    34    1
     8    34    35    1
     9    27    19    1
    10    19    20    1
    11    20    21    1
    12    21    22    1
    13    22    23    1
    14    23    24    1
    15    24    25    1
    16    19     1    1
    17     1     2   ar
    18     2    12    1
    19    12    13   ar
    20    13    14   ar
    21    14    15   ar
    22    15    16    1
    23    15    17   ar
    24    17    18   ar
    25     2     3   ar
    26     3     4   ar
    27     4     5   ar
    28     5     6   ar
    29     6     7    1
    30     6     8   ar
    31     8     9    1
    32     8    10   ar
    33    10    11   ar
    34    35    30    1
    35    25    20    1
    36    11     1   ar
    37    18    12   ar
    38    11     4   ar
    39    28    29    1
@<TRIPOS>MOLECULE
*****
 35 39 0 0 0
SMALL
GASTEIGER

@<TRIPOS>ATOM
      1 N         140.5881  143.4046  159.6693 N.ar    1  UNL1       -0.3047
      2 C         141.6043  144.3586  160.2236 C.ar    1  UNL1        0.1441
      3 N         141.7431  145.4996  159.2597 N.ar    1  UNL1       -0.2267
      4 C         140.8126  145.2507  158.1098 C.ar    1  UNL1        0.1010
      5 C         140.5231  146.0357  156.8649 C.ar    1  UNL1        0.0526
      6 C         139.5199  145.5260  155.8731 C.ar    1  UNL1        0.1690
      7 F         139.2303  146.3111  154.6281 F       1  UNL1       -0.2017
      8 C         138.8061  144.2313  156.1263 C.ar    1  UNL1        0.1689
      9 F         137.8028  143.7216  155.1345 F       1  UNL1       -0.2017
     10 C         139.0956  143.4462  157.3712 C.ar    1  UNL1        0.0507
     11 C         140.0988  143.9559  158.3629 C.ar    1  UNL1        0.0816
     12 C         142.3507  144.1997  161.5150 C.ar    1  UNL1        0.0342
     13 C         141.8365  144.8525  162.7637 C.ar    1  UNL1        0.0039
     14 C         142.5829  144.6935  164.0551 C.ar    1  UNL1        0.0115
     15 C         143.8435  143.8817  164.0977 C.ar    1  UNL1        0.0577
     16 CL        144.5899  143.7227  165.3891 Cl      1  UNL1       -0.0822
     17 C         144.3577  143.2289  162.8489 C.ar    1  UNL1        0.0115
     18 C         143.6113  143.3879  161.5576 C.ar    1  UNL1        0.0039
     19 C         140.1399  142.1241  160.3091 C.3     1  UNL1        0.1628
     20 C         139.5168  142.1452  161.6734 C.3     1  UNL1        0.0297
     21 C         140.1980  141.4582  162.8198 C.3     1  UNL1        0.0024
     22 C         139.5750  141.4793  164.1841 C.3     1  UNL1        0.0001
     23 C         138.2707  142.1875  164.4020 C.3     1  UNL1        0.0000
     24 C         137.5896  142.8744  163.2557 C.3     1  UNL1        0.0001
     25 C         138.2126  142.8533  161.8914 C.3     1  UNL1        0.0024
     26 O         139.6034  139.5024  159.6270 O.2     1  UNL1       -0.2731
     27 C         140.3148  140.8223  159.5846 C.2     1  UNL1        0.2431
     28 N         141.4049  140.6718  158.5653 N.am    1  UNL1       -0.3044
     29 H         142.0057  141.4274  158.3719 H       1  UNL1        0.1494
     30 C         141.5797  139.3701  157.8409 C.3     1  UNL1        0.0716
     31 C         142.5172  138.3312  158.3811 C.3     1  UNL1        0.0196
     32 C         142.6921  137.0293  157.6567 C.3     1  UNL1        0.0017
     33 C         141.9295  136.7664  156.3920 C.3     1  UNL1        0.0001
     34 C         140.9920  137.8054  155.8519 C.3     1  UNL1        0.0017
     35 C         140.8171  139.1072  156.5763 C.3     1  UNL1        0.0196
@<TRIPOS>BOND
     1    26    27    2
     2    27    28   am
     3    28    30    1
     4    30    31    1
     5    31    32    1
     6    32    33    1
     7    33    34    1
     8    34    35    1
     9    27    19    1
    10    19    20    1
    11    20    21    1
    12    21    22    1
    13    22    23    1
    14    23    24    1
    15    24    25    1
    16    19     1    1
    17     1     2   ar
    18     2    12    1
    19    12    13   ar
    20    13    14   ar
    21    14    15   ar
    22    15    16    1
    23    15    17   ar
    24    17    18   ar
    25     2     3   ar
    26     3     4   ar
    27     4     5   ar
    28     5     6   ar
    29     6     7    1
    30     6     8   ar
    31     8     9    1
    32     8    10   ar
    33    10    11   ar
    34    35    30    1
    35    25    20    1
    36    11     1   ar
    37    18    12   ar
    38    11     4   ar
    39    28    29    1
@<TRIPOS>MOLECULE
*****
 35 39 0 0 0
SMALL
GASTEIGER

@<TRIPOS>ATOM
      1 N         140.6998  142.1540  161.9842 N.ar    1  UNL1       -0.3047
      2 C         139.5752  142.6319  161.1142 C.ar    1  UNL1        0.1441
      3 N         138.2876  142.1534  161.7167 N.ar    1  UNL1       -0.2267
      4 C         138.6164  141.3796  162.9589 C.ar    1  UNL1        0.1010
      5 C         137.7508  140.6748  163.9609 C.ar    1  UNL1        0.0526
      6 C         138.3761  139.9704  165.1283 C.ar    1  UNL1        0.1690
      7 F         137.5106  139.2655  166.1303 F       1  UNL1       -0.2017
      8 C         139.8670  139.9708  165.2936 C.ar    1  UNL1        0.1689
      9 F         140.4923  139.2663  166.4610 F       1  UNL1       -0.2017
     10 C         140.7325  140.6756  164.2916 C.ar    1  UNL1        0.0507
     11 C         140.1072  141.3800  163.1243 C.ar    1  UNL1        0.0816
     12 C         139.7139  143.4456  159.8617 C.ar    1  UNL1        0.0342
     13 C         140.2156  144.8572  159.9361 C.ar    1  UNL1        0.0039
     14 C         140.3543  145.6709  158.6836 C.ar    1  UNL1        0.0115
     15 C         139.9913  145.0729  157.3567 C.ar    1  UNL1        0.0577
     16 CL        140.1300  145.8866  156.1043 Cl      1  UNL1       -0.0822
     17 C         139.4896  143.6613  157.2824 C.ar    1  UNL1        0.0115
     18 C         139.3509  142.8476  158.5349 C.ar    1  UNL1        0.0039
     19 C         142.1606  142.4058  161.7544 C.3     1  UNL1        0.1628
     20 C         143.0134  142.9407  162.8663 C.3     1  UNL1        0.0297
     21 C         143.9949  142.0415  163.5579 C.3     1  UNL1        0.0024
     22 C         144.8479  142.5763  164.6698 C.3     1  UNL1        0.0001
     23 C         144.7193  144.0105  165.0902 C.3     1  UNL1        0.0000
     24 C         143.7379  144.9097  164.3986 C.3     1  UNL1        0.0001
     25 C         142.8850  144.3748  163.2867 C.3     1  UNL1        0.0024
     26 O         142.9297  140.8839  159.5821 O.2     1  UNL1       -0.2731
     27 C         142.7685  142.1226  160.4126 C.2     1  UNL1        0.2431
     28 N         143.3869  143.2355  159.6194 N.am    1  UNL1       -0.3044
     29 H         143.3938  144.1517  159.9795 H       1  UNL1        0.1494
     30 C         143.9947  142.9522  158.2777 C.3     1  UNL1        0.0716
     31 C         145.4244  142.5089  158.1807 C.3     1  UNL1        0.0196
     32 C         146.0324  142.2256  156.8389 C.3     1  UNL1        0.0017
     33 C         145.2107  142.3857  155.5943 C.3     1  UNL1        0.0001
     34 C         143.7810  142.8291  155.6914 C.3     1  UNL1        0.0017
     35 C         143.1730  143.1123  157.0331 C.3     1  UNL1        0.0196
@<TRIPOS>BOND
     1    26    27    2
     2    27    28   am
     3    28    30    1
     4    30    31    1
     5    31    32    1
     6    32    33    1
     7    33    34    1
     8    34    35    1
     9    27    19    1
    10    19    20    1
    11    20    21    1
    12    21    22    1
    13    22    23    1
    14    23    24    1
    15    24    25    1
    16    19     1    1
    17     1     2   ar
    18     2    12    1
    19    12    13   ar
    20    13    14   ar
    21    14    15   ar
    22    15    16    1
    23    15    17   ar
    24    17    18   ar
    25     2     3   ar
    26     3     4   ar
    27     4     5   ar
    28     5     6   ar
    29     6     7    1
    30     6     8   ar
    31     8     9    1
    32     8    10   ar
    33    10    11   ar
    34    35    30    1
    35    25    20    1
    36    11     1   ar
    37    18    12   ar
    38    11     4   ar
    39    28    29    1
@<TRIPOS>MOLECULE
*****
 35 39 0 0 0
SMALL
GASTEIGER

@<TRIPOS>ATOM
      1 N         140.9574  140.9259  161.3050 N.ar    1  UNL1       -0.3047
      2 C         141.4828  139.9279  160.3161 C.ar    1  UNL1        0.1441
      3 N         141.1249  138.5565  160.8070 N.ar    1  UNL1       -0.2267
      4 C         140.3782  138.7069  162.0993 C.ar    1  UNL1        0.1010
      5 C         139.7793  137.6996  163.0355 C.ar    1  UNL1        0.0526
      6 C         139.0768  138.1568  164.2795 C.ar    1  UNL1        0.1690
      7 F         138.4778  137.1495  165.2158 F       1  UNL1       -0.2017
      8 C         138.9733  139.6212  164.5872 C.ar    1  UNL1        0.1689
      9 F         138.2708  140.0784  165.8313 F       1  UNL1       -0.2017
     10 C         139.5723  140.6285  163.6510 C.ar    1  UNL1        0.0507
     11 C         140.2748  140.1713  162.4071 C.ar    1  UNL1        0.0816
     12 C         142.2343  140.2455  159.0573 C.ar    1  UNL1        0.0342
     13 C         143.6916  140.5948  159.1217 C.ar    1  UNL1        0.0039
     14 C         144.4430  140.9125  157.8629 C.ar    1  UNL1        0.0115
     15 C         143.7371  140.8808  156.5398 C.ar    1  UNL1        0.0577
     16 CL        144.4885  141.1984  155.2810 Cl      1  UNL1       -0.0822
     17 C         142.2798  140.5315  156.4755 C.ar    1  UNL1        0.0115
     18 C         141.5284  140.2138  157.7342 C.ar    1  UNL1        0.0039
     19 C         141.0912  142.4169  161.2087 C.3     1  UNL1        0.1628
     20 C         141.9660  143.1555  162.1777 C.3     1  UNL1        0.0297
     21 C         141.4764  144.4220  162.8153 C.3     1  UNL1        0.0024
     22 C         142.3512  145.1608  163.7843 C.3     1  UNL1        0.0001
     23 C         143.7157  144.6330  164.1157 C.3     1  UNL1        0.0000
     24 C         144.2052  143.3666  163.4782 C.3     1  UNL1        0.0001
     25 C         143.3305  142.6279  162.5092 C.3     1  UNL1        0.0024
     26 O         138.9291  143.6227  159.9849 O.2     1  UNL1       -0.2731
     27 C         140.3501  143.1692  160.1433 C.2     1  UNL1        0.2431
     28 N         141.0706  143.6285  158.9105 N.am    1  UNL1       -0.3044
     29 H         142.0298  143.4363  158.8005 H       1  UNL1        0.1494
     30 C         140.3295  144.3808  157.8452 C.3     1  UNL1        0.0716
     31 C         139.5717  143.6331  156.7885 C.3     1  UNL1        0.0196
     32 C         138.8305  144.3853  155.7231 C.3     1  UNL1        0.0017
     33 C         138.8471  145.8852  155.7146 C.3     1  UNL1        0.0001
     34 C         139.6049  146.6328  156.7714 C.3     1  UNL1        0.0017
     35 C         140.3460  145.8806  157.8367 C.3     1  UNL1        0.0196
@<TRIPOS>BOND
     1    26    27    2
     2    27    28   am
     3    28    30    1
     4    30    31    1
     5    31    32    1
     6    32    33    1
     7    33    34    1
     8    34    35    1
     9    27    19    1
    10    19    20    1
    11    20    21    1
    12    21    22    1
    13    22    23    1
    14    23    24    1
    15    24    25    1
    16    19     1    1
    17     1     2   ar
    18     2    12    1
    19    12    13   ar
    20    13    14   ar
    21    14    15   ar
    22    15    16    1
    23    15    17   ar
    24    17    18   ar
    25     2     3   ar
    26     3     4   ar
    27     4     5   ar
    28     5     6   ar
    29     6     7    1
    30     6     8   ar
    31     8     9    1
    32     8    10   ar
    33    10    11   ar
    34    35    30    1
    35    25    20    1
    36    11     1   ar
    37    18    12   ar
    38    11     4   ar
    39    28    29    1
