@<TRIPOS>MOLECULE
*****
 35 38 0 0 0
SMALL
GASTEIGER

@<TRIPOS>ATOM
      1 C         140.9965  140.3248  164.6305 C.2     1  UNL1        0.1397
      2 C         140.7771  140.2405  163.1491 C.2     1  UNL1        0.1355
      3 N         140.5530  141.4910  162.3517 N.pl3   1  UNL1       -0.1998
      4 C         140.5482  142.8259  163.0357 C.2     1  UNL1        0.3442
      5 N         140.7676  142.9103  164.5172 N.2     1  UNL1       -0.0580
      6 C         140.9918  141.6597  165.3146 C.3     1  UNL1        0.2695
      7 H         140.4089  141.4357  161.3794 H       1  UNL1        0.2983
      8 C         141.2112  141.7441  166.7961 C.ar    1  UNL1        0.0414
      9 C         140.0962  141.4039  167.7400 C.ar    1  UNL1        0.0019
     10 C         140.3156  141.4883  169.2214 C.ar    1  UNL1        0.0113
     11 C         141.6500  141.9128  169.7590 C.ar    1  UNL1        0.0585
     12 CL        141.8694  141.9972  171.2405 Cl      1  UNL1       -0.0822
     13 C         142.7651  142.2530  168.8151 C.ar    1  UNL1        0.0226
     14 C         142.5457  142.1687  167.3336 C.ar    1  UNL1        0.0589
     15 CL        143.6607  142.5089  166.3897 Cl      1  UNL1       -0.0824
     16 C         140.3240  144.0765  162.2383 C.ar    1  UNL1        0.1931
     17 N         139.6536  145.3259  162.7277 N.ar    1  UNL1       -0.2297
     18 C         139.6461  146.3188  161.6034 C.ar    1  UNL1        0.1067
     19 C         140.3120  145.6831  160.4191 C.ar    1  UNL1        0.0577
     20 S         140.7309  144.2973  160.8116 S.2     1  UNL1       -0.0586
     21 C         141.2207  139.0742  165.4279 C.2     1  UNL1        0.3447
     22 O         142.5977  138.7313  165.9138 O.2     1  UNL1       -0.2450
     23 O         140.0679  138.1666  165.7393 O.3     1  UNL1       -0.4455
     24 C         137.7657  138.5660  166.8754 C.3     1  UNL1        0.0513
     25 C         138.6636  138.6905  165.6802 C.3     1  UNL1        0.2089
     26 C         140.7819  138.9055  162.4650 C.3     1  UNL1        0.1407
     27 N         140.7489  138.8302  160.9672 N.3     1  UNL1       -0.2584
     28 C         142.0169  138.5988  160.1999 C.3     1  UNL1        0.1052
     29 C         141.9839  138.5235  158.7021 C.3     1  UNL1        0.1595
     30 O         140.6831  138.6795  157.9717 O.3     1  UNL1       -0.3505
     31 C         139.4152  138.9109  158.7391 C.3     1  UNL1        0.1637
     32 C         139.4481  138.9862  160.2368 C.3     1  UNL1        0.1247
     33 C         138.1802  139.2176  161.0042 C.2     1  UNL1        0.0673
     34 O         137.4327  138.0544  161.5860 O.co2   1  UNL1       -0.5477
     35 O         137.6597  140.6121  161.1898 O.co2   1  UNL1       -0.5477
@<TRIPOS>UNITY_ATOM_ATTR
34 1
charge -1
@<TRIPOS>BOND
     1    24    25    1
     2    25    23    1
     3    23    21    1
     4    21    22    2
     5    21     1    1
     6     1     2    2
     7     2    26    1
     8    26    27    1
     9    27    28    1
    10    28    29    1
    11    29    30    1
    12    30    31    1
    13    31    32    1
    14    32    33    1
    15    33    34   ar
    16    33    35   ar
    17     2     3    1
    18     3     4    1
    19     4    16    1
    20    16    17   ar
    21    17    18   ar
    22    18    19   ar
    23    19    20   ar
    24     4     5    2
    25     5     6    1
    26     6     8    1
    27     8     9   ar
    28     9    10   ar
    29    10    11   ar
    30    11    12    1
    31    11    13   ar
    32    13    14   ar
    33    14    15    1
    34     6     1    1
    35    14     8   ar
    36    32    27    1
    37    20    16   ar
    38     3     7    1
@<TRIPOS>MOLECULE
*****
 35 38 0 0 0
SMALL
GASTEIGER

@<TRIPOS>ATOM
      1 C         141.0309  140.2591  164.4699 C.2     1  UNL1        0.1397
      2 C         140.8304  140.1764  162.9857 C.2     1  UNL1        0.1355
      3 N         140.6036  141.4268  162.1888 N.pl3   1  UNL1       -0.1998
      4 C         140.5771  142.7598  162.8760 C.2     1  UNL1        0.3442
      5 N         140.7776  142.8424  164.3603 N.2     1  UNL1       -0.0580
      6 C         141.0044  141.5920  165.1572 C.3     1  UNL1        0.2695
      7 H         140.4720  141.3726  161.2146 H       1  UNL1        0.2983
      8 C         141.2049  141.6747  166.6415 C.ar    1  UNL1        0.0414
      9 C         140.0801  141.3262  167.5707 C.ar    1  UNL1        0.0019
     10 C         140.2805  141.4088  169.0550 C.ar    1  UNL1        0.0113
     11 C         141.6057  141.8401  169.6100 C.ar    1  UNL1        0.0585
     12 CL        141.8061  141.9227  171.0943 Cl      1  UNL1       -0.0822
     13 C         142.7304  142.1886  168.6808 C.ar    1  UNL1        0.0226
     14 C         142.5300  142.1059  167.1965 C.ar    1  UNL1        0.0589
     15 CL        143.6547  142.4545  166.2673 Cl      1  UNL1       -0.0824
     16 C         140.3503  144.0102  162.0791 C.ar    1  UNL1        0.1931
     17 N         139.7477  145.2849  162.5911 N.ar    1  UNL1       -0.2297
     18 C         139.7112  146.2679  161.4586 C.ar    1  UNL1        0.1067
     19 C         140.2911  145.6007  160.2468 C.ar    1  UNL1        0.0577
     20 S         140.6860  144.2054  160.6303 S.2     1  UNL1       -0.0586
     21 C         141.2577  139.0087  165.2669 C.2     1  UNL1        0.3447
     22 O         142.6330  138.6757  165.7646 O.2     1  UNL1       -0.2450
     23 O         140.1094  138.0913  165.5661 O.3     1  UNL1       -0.4455
     24 C         137.8428  138.5324  166.7570 C.3     1  UNL1        0.0513
     25 C         138.7036  138.6133  165.5312 C.3     1  UNL1        0.2089
     26 C         140.8569  138.8434  162.2984 C.3     1  UNL1        0.1407
     27 N         140.9342  138.7725  160.8021 N.3     1  UNL1       -0.2584
     28 C         139.6763  138.6932  159.9889 C.3     1  UNL1        0.1052
     29 C         139.7537  138.6224  158.4925 C.3     1  UNL1        0.1595
     30 O         141.0890  138.6307  157.8094 O.3     1  UNL1       -0.3505
     31 C         142.3470  138.7100  158.6225 C.3     1  UNL1        0.1637
     32 C         142.2696  138.7809  160.1188 C.3     1  UNL1        0.1247
     33 C         143.5276  138.8601  160.9320 C.2     1  UNL1        0.0673
     34 O         144.1296  140.1958  161.2540 O.co2   1  UNL1       -0.5477
     35 O         144.1836  137.6038  161.4232 O.co2   1  UNL1       -0.5477
@<TRIPOS>UNITY_ATOM_ATTR
34 1
charge -1
@<TRIPOS>BOND
     1    24    25    1
     2    25    23    1
     3    23    21    1
     4    21    22    2
     5    21     1    1
     6     1     2    2
     7     2    26    1
     8    26    27    1
     9    27    28    1
    10    28    29    1
    11    29    30    1
    12    30    31    1
    13    31    32    1
    14    32    33    1
    15    33    34   ar
    16    33    35   ar
    17     2     3    1
    18     3     4    1
    19     4    16    1
    20    16    17   ar
    21    17    18   ar
    22    18    19   ar
    23    19    20   ar
    24     4     5    2
    25     5     6    1
    26     6     8    1
    27     8     9   ar
    28     9    10   ar
    29    10    11   ar
    30    11    12    1
    31    11    13   ar
    32    13    14   ar
    33    14    15    1
    34     6     1    1
    35    14     8   ar
    36    32    27    1
    37    20    16   ar
    38     3     7    1
@<TRIPOS>MOLECULE
*****
 35 38 0 0 0
SMALL
GASTEIGER

@<TRIPOS>ATOM
      1 C         139.5776  142.1015  163.6998 C.2     1  UNL1        0.1397
      2 C         139.5935  142.0052  162.2030 C.2     1  UNL1        0.1355
      3 N         140.4743  140.9975  161.5256 N.pl3   1  UNL1       -0.1998
      4 C         141.3391  140.0861  162.3450 C.2     1  UNL1        0.3442
      5 N         141.3232  140.1824  163.8418 N.2     1  UNL1       -0.0580
      6 C         140.4424  141.1901  164.5192 C.3     1  UNL1        0.2695
      7 H         140.4847  140.9343  160.5432 H       1  UNL1        0.2983
      8 C         140.4265  141.2864  166.0161 C.ar    1  UNL1        0.0414
      9 C         141.2938  142.2931  166.7121 C.ar    1  UNL1        0.0019
     10 C         141.2779  142.3894  168.2089 C.ar    1  UNL1        0.0113
     11 C         140.3948  141.4790  169.0098 C.ar    1  UNL1        0.0585
     12 CL        140.3789  141.5753  170.5065 Cl      1  UNL1       -0.0822
     13 C         139.5275  140.4723  168.3137 C.ar    1  UNL1        0.0226
     14 C         139.5434  140.3760  166.8169 C.ar    1  UNL1        0.0589
     15 CL        138.6762  139.3694  166.1208 Cl      1  UNL1       -0.0824
     16 C         142.2198  139.0784  161.6676 C.ar    1  UNL1        0.1931
     17 N         143.5355  138.5718  162.1796 N.ar    1  UNL1       -0.2297
     18 C         144.0684  137.5807  161.1877 C.ar    1  UNL1        0.1067
     19 C         143.0819  137.4748  160.0627 C.ar    1  UNL1        0.0577
     20 S         141.9395  138.4005  160.3593 S.2     1  UNL1       -0.0586
     21 C         138.6969  143.1092  164.3772 C.2     1  UNL1        0.3447
     22 O         137.2514  142.7951  164.6259 O.2     1  UNL1       -0.2450
     23 O         139.2616  144.4310  164.8059 O.3     1  UNL1       -0.4455
     24 C         141.6941  144.9327  164.0434 C.3     1  UNL1        0.0513
     25 C         140.2177  145.1635  163.9119 C.3     1  UNL1        0.2089
     26 C         138.7287  142.9166  161.3836 C.3     1  UNL1        0.1407
     27 N         138.9069  142.9823  159.8957 N.3     1  UNL1       -0.2584
     28 C         138.2493  141.9609  159.0157 C.3     1  UNL1        0.1052
     29 C         138.4275  142.0266  157.5277 C.3     1  UNL1        0.1595
     30 O         139.2634  143.1137  156.9198 O.3     1  UNL1       -0.3505
     31 C         139.9210  144.1351  157.7998 C.3     1  UNL1        0.1637
     32 C         139.7428  144.0694  159.2877 C.3     1  UNL1        0.1247
     33 C         140.4004  145.0908  160.1676 C.2     1  UNL1        0.0673
     34 O         139.6052  146.2464  160.6990 O.co2   1  UNL1       -0.5477
     35 O         141.8531  144.9566  160.5162 O.co2   1  UNL1       -0.5477
@<TRIPOS>UNITY_ATOM_ATTR
34 1
charge -1
@<TRIPOS>BOND
     1    24    25    1
     2    25    23    1
     3    23    21    1
     4    21    22    2
     5    21     1    1
     6     1     2    2
     7     2    26    1
     8    26    27    1
     9    27    28    1
    10    28    29    1
    11    29    30    1
    12    30    31    1
    13    31    32    1
    14    32    33    1
    15    33    34   ar
    16    33    35   ar
    17     2     3    1
    18     3     4    1
    19     4    16    1
    20    16    17   ar
    21    17    18   ar
    22    18    19   ar
    23    19    20   ar
    24     4     5    2
    25     5     6    1
    26     6     8    1
    27     8     9   ar
    28     9    10   ar
    29    10    11   ar
    30    11    12    1
    31    11    13   ar
    32    13    14   ar
    33    14    15    1
    34     6     1    1
    35    14     8   ar
    36    32    27    1
    37    20    16   ar
    38     3     7    1
@<TRIPOS>MOLECULE
*****
 35 38 0 0 0
SMALL
GASTEIGER

@<TRIPOS>ATOM
      1 C         140.5330  139.5950  164.0292 C.2     1  UNL1        0.1397
      2 C         140.5543  139.7507  162.5375 C.2     1  UNL1        0.1355
      3 N         140.4532  141.1159  161.9244 N.pl3   1  UNL1       -0.1998
      4 C         140.3307  142.3254  162.8030 C.2     1  UNL1        0.3442
      5 N         140.3094  142.1697  164.2947 N.2     1  UNL1       -0.0580
      6 C         140.4105  140.8045  164.9078 C.3     1  UNL1        0.2695
      7 H         140.4672  141.2181  160.9453 H       1  UNL1        0.2983
      8 C         140.3891  140.6488  166.3996 C.ar    1  UNL1        0.0414
      9 C         139.1787  140.0776  167.0768 C.ar    1  UNL1        0.0019
     10 C         139.1573  139.9219  168.5686 C.ar    1  UNL1        0.0113
     11 C         140.3464  140.3375  169.3832 C.ar    1  UNL1        0.0585
     12 CL        140.3250  140.1818  170.8749 Cl      1  UNL1       -0.0822
     13 C         141.5568  140.9088  168.7060 C.ar    1  UNL1        0.0226
     14 C         141.5782  141.0644  167.2142 C.ar    1  UNL1        0.0589
     15 CL        142.7886  141.6357  166.5370 Cl      1  UNL1       -0.0824
     16 C         140.2296  143.6907  162.1899 C.ar    1  UNL1        0.1931
     17 N         139.7529  144.9341  162.8803 N.ar    1  UNL1       -0.2297
     18 C         139.8161  146.0641  161.8958 C.ar    1  UNL1        0.1067
     19 C         140.3318  145.5191  160.5970 C.ar    1  UNL1        0.0577
     20 S         140.5873  144.0522  160.7788 S.2     1  UNL1       -0.0586
     21 C         140.6341  138.2297  164.6424 C.2     1  UNL1        0.3447
     22 O         139.3916  137.5035  165.0650 O.2     1  UNL1       -0.2450
     23 O         141.9777  137.5908  164.8328 O.3     1  UNL1       -0.4455
     24 C         143.8993  138.1279  166.4969 C.3     1  UNL1        0.0513
     25 C         143.1574  138.4286  165.2284 C.3     1  UNL1        0.2089
     26 C         140.6768  138.5411  161.6588 C.3     1  UNL1        0.1407
     27 N         141.0350  138.6991  160.2109 N.3     1  UNL1       -0.2584
     28 C         139.9573  138.7026  159.1676 C.3     1  UNL1        0.1052
     29 C         140.3156  138.8606  157.7196 C.3     1  UNL1        0.1595
     30 O         141.7516  139.0152  157.3149 O.3     1  UNL1       -0.3505
     31 C         142.8294  139.0118  158.3582 C.3     1  UNL1        0.1637
     32 C         142.4712  138.8538  159.8061 C.3     1  UNL1        0.1247
     33 C         143.5489  138.8503  160.8494 C.2     1  UNL1        0.0673
     34 O         144.0911  137.5495  161.3633 O.co2   1  UNL1       -0.5477
     35 O         144.0845  140.1476  161.3787 O.co2   1  UNL1       -0.5477
@<TRIPOS>UNITY_ATOM_ATTR
34 1
charge -1
@<TRIPOS>BOND
     1    24    25    1
     2    25    23    1
     3    23    21    1
     4    21    22    2
     5    21     1    1
     6     1     2    2
     7     2    26    1
     8    26    27    1
     9    27    28    1
    10    28    29    1
    11    29    30    1
    12    30    31    1
    13    31    32    1
    14    32    33    1
    15    33    34   ar
    16    33    35   ar
    17     2     3    1
    18     3     4    1
    19     4    16    1
    20    16    17   ar
    21    17    18   ar
    22    18    19   ar
    23    19    20   ar
    24     4     5    2
    25     5     6    1
    26     6     8    1
    27     8     9   ar
    28     9    10   ar
    29    10    11   ar
    30    11    12    1
    31    11    13   ar
    32    13    14   ar
    33    14    15    1
    34     6     1    1
    35    14     8   ar
    36    32    27    1
    37    20    16   ar
    38     3     7    1
@<TRIPOS>MOLECULE
*****
 35 38 0 0 0
SMALL
GASTEIGER

@<TRIPOS>ATOM
      1 C         143.0132  140.1903  159.4509 C.2     1  UNL1        0.1397
      2 C         143.2880  139.2066  158.3524 C.2     1  UNL1        0.1355
      3 N         144.2323  139.5652  157.2434 N.pl3   1  UNL1       -0.1998
      4 C         144.9017  140.9075  157.2330 C.2     1  UNL1        0.3442
      5 N         144.6269  141.8911  158.3315 N.2     1  UNL1       -0.0580
      6 C         143.6826  141.5326  159.4405 C.3     1  UNL1        0.2695
      7 H         144.4126  138.9196  156.5224 H       1  UNL1        0.2983
      8 C         143.4078  142.5163  160.5391 C.ar    1  UNL1        0.0414
      9 C         144.3099  142.5751  161.7361 C.ar    1  UNL1        0.0019
     10 C         144.0351  143.5588  162.8346 C.ar    1  UNL1        0.0113
     11 C         142.8583  144.4838  162.7362 C.ar    1  UNL1        0.0585
     12 CL        142.5835  145.4674  163.8347 Cl      1  UNL1       -0.0822
     13 C         141.9562  144.4249  161.5392 C.ar    1  UNL1        0.0226
     14 C         142.2310  143.4412  160.4406 C.ar    1  UNL1        0.0589
     15 CL        141.3290  143.3824  159.2436 Cl      1  UNL1       -0.0824
     16 C         145.8459  141.2661  156.1240 C.ar    1  UNL1        0.1931
     17 N         147.0902  142.0929  156.2582 N.ar    1  UNL1       -0.2297
     18 C         147.7250  142.1987  154.9033 C.ar    1  UNL1        0.1067
     19 C         146.8730  141.4371  153.9316 C.ar    1  UNL1        0.0577
     20 S         145.7117  140.8608  154.6861 S.2     1  UNL1       -0.0586
     21 C         142.0690  139.8317  160.5599 C.2     1  UNL1        0.3447
     22 O         140.6537  140.3278  160.5298 O.2     1  UNL1       -0.2450
     23 O         142.5400  138.9770  161.6990 O.3     1  UNL1       -0.4455
     24 C         144.3994  139.3093  163.4829 C.3     1  UNL1        0.0513
     25 C         143.9906  138.9685  162.0805 C.3     1  UNL1        0.2089
     26 C         142.6186  137.8643  158.3628 C.3     1  UNL1        0.1407
     27 N         141.7078  137.4716  157.2375 N.3     1  UNL1       -0.2584
     28 C         140.2785  137.9267  157.2358 C.3     1  UNL1        0.1052
     29 C         139.3678  137.5340  156.1105 C.3     1  UNL1        0.1595
     30 O         139.8863  136.6863  154.9869 O.3     1  UNL1       -0.3505
     31 C         141.3156  136.2313  154.9886 C.3     1  UNL1        0.1637
     32 C         142.2264  136.6239  156.1139 C.3     1  UNL1        0.1247
     33 C         143.6557  136.1689  156.1156 C.2     1  UNL1        0.0673
     34 O         144.0018  134.7852  156.5802 O.co2   1  UNL1       -0.5477
     35 O         144.7390  137.0975  155.6527 O.co2   1  UNL1       -0.5477
@<TRIPOS>UNITY_ATOM_ATTR
34 1
charge -1
@<TRIPOS>BOND
     1    24    25    1
     2    25    23    1
     3    23    21    1
     4    21    22    2
     5    21     1    1
     6     1     2    2
     7     2    26    1
     8    26    27    1
     9    27    28    1
    10    28    29    1
    11    29    30    1
    12    30    31    1
    13    31    32    1
    14    32    33    1
    15    33    34   ar
    16    33    35   ar
    17     2     3    1
    18     3     4    1
    19     4    16    1
    20    16    17   ar
    21    17    18   ar
    22    18    19   ar
    23    19    20   ar
    24     4     5    2
    25     5     6    1
    26     6     8    1
    27     8     9   ar
    28     9    10   ar
    29    10    11   ar
    30    11    12    1
    31    11    13   ar
    32    13    14   ar
    33    14    15    1
    34     6     1    1
    35    14     8   ar
    36    32    27    1
    37    20    16   ar
    38     3     7    1
@<TRIPOS>MOLECULE
*****
 35 38 0 0 0
SMALL
GASTEIGER

@<TRIPOS>ATOM
      1 C         139.1150  141.3101  160.5758 C.2     1  UNL1        0.1397
      2 C         139.2235  140.6980  159.2107 C.2     1  UNL1        0.1355
      3 N         139.3186  141.5779  157.9996 N.pl3   1  UNL1       -0.1998
      4 C         139.3052  143.0699  158.1536 C.2     1  UNL1        0.3442
      5 N         139.1966  143.6820  159.5187 N.2     1  UNL1       -0.0580
      6 C         139.1016  142.8021  160.7298 C.3     1  UNL1        0.2695
      7 H         139.3898  141.1762  157.1036 H       1  UNL1        0.2983
      8 C         138.9931  143.4143  162.0950 C.ar    1  UNL1        0.0414
      9 C         137.6590  143.4975  162.7757 C.ar    1  UNL1        0.0019
     10 C         137.5505  144.1096  164.1408 C.ar    1  UNL1        0.0113
     11 C         138.7760  144.6385  164.8252 C.ar    1  UNL1        0.0585
     12 CL        138.6674  145.2507  166.1903 Cl      1  UNL1       -0.0822
     13 C         140.1100  144.5553  164.1444 C.ar    1  UNL1        0.0226
     14 C         140.2185  143.9432  162.7793 C.ar    1  UNL1        0.0589
     15 CL        141.5526  143.8600  162.0986 Cl      1  UNL1       -0.0824
     16 C         139.4002  143.9498  156.9425 C.ar    1  UNL1        0.1931
     17 N         139.8734  145.3731  156.9217 N.ar    1  UNL1       -0.2297
     18 C         139.8045  145.8638  155.5059 C.ar    1  UNL1        0.1067
     19 C         139.2886  144.7439  154.6517 C.ar    1  UNL1        0.0577
     20 S         139.0388  143.5610  155.5396 S.2     1  UNL1       -0.0586
     21 C         139.0199  140.4302  161.7869 C.2     1  UNL1        0.3447
     22 O         137.7030  139.8243  162.1722 O.2     1  UNL1       -0.2450
     23 O         140.2418  140.1562  162.6126 O.3     1  UNL1       -0.4455
     24 C         139.5285  140.9551  164.9797 C.3     1  UNL1        0.0513
     25 C         140.1103  139.9011  164.0849 C.3     1  UNL1        0.2089
     26 C         139.2369  139.2060  159.0566 C.3     1  UNL1        0.1407
     27 N         140.4995  138.5052  158.6508 N.3     1  UNL1       -0.2584
     28 C         141.6239  138.3571  159.6326 C.3     1  UNL1        0.1052
     29 C         142.8865  137.6563  159.2267 C.3     1  UNL1        0.1595
     30 O         143.0248  137.1037  157.8391 O.3     1  UNL1       -0.3505
     31 C         141.9004  137.2519  156.8573 C.3     1  UNL1        0.1637
     32 C         140.6378  137.9526  157.2631 C.3     1  UNL1        0.1247
     33 C         139.5135  138.1008  156.2813 C.2     1  UNL1        0.0673
     34 O         138.6478  136.9217  155.9489 O.co2   1  UNL1       -0.5477
     35 O         139.2548  139.4280  155.6320 O.co2   1  UNL1       -0.5477
@<TRIPOS>UNITY_ATOM_ATTR
34 1
charge -1
@<TRIPOS>BOND
     1    24    25    1
     2    25    23    1
     3    23    21    1
     4    21    22    2
     5    21     1    1
     6     1     2    2
     7     2    26    1
     8    26    27    1
     9    27    28    1
    10    28    29    1
    11    29    30    1
    12    30    31    1
    13    31    32    1
    14    32    33    1
    15    33    34   ar
    16    33    35   ar
    17     2     3    1
    18     3     4    1
    19     4    16    1
    20    16    17   ar
    21    17    18   ar
    22    18    19   ar
    23    19    20   ar
    24     4     5    2
    25     5     6    1
    26     6     8    1
    27     8     9   ar
    28     9    10   ar
    29    10    11   ar
    30    11    12    1
    31    11    13   ar
    32    13    14   ar
    33    14    15    1
    34     6     1    1
    35    14     8   ar
    36    32    27    1
    37    20    16   ar
    38     3     7    1
@<TRIPOS>MOLECULE
*****
 35 38 0 0 0
SMALL
GASTEIGER

@<TRIPOS>ATOM
      1 C         142.4747  139.8791  160.1968 C.2     1  UNL1        0.1397
      2 C         143.2683  140.1720  158.9581 C.2     1  UNL1        0.1355
      3 N         143.4488  139.1100  157.9143 N.pl3   1  UNL1       -0.1998
      4 C         142.8358  137.7549  158.1093 C.2     1  UNL1        0.3442
      5 N         142.0423  137.4620  159.3480 N.2     1  UNL1       -0.0580
      6 C         141.8617  138.5240  160.3917 C.3     1  UNL1        0.2695
      7 H         143.9696  139.3023  157.1013 H       1  UNL1        0.2983
      8 C         141.0681  138.2310  161.6305 C.ar    1  UNL1        0.0414
      9 C         141.7606  137.7338  162.8647 C.ar    1  UNL1        0.0019
     10 C         140.9671  137.4407  164.1034 C.ar    1  UNL1        0.0113
     11 C         139.4810  137.6449  164.1079 C.ar    1  UNL1        0.0585
     12 CL        138.6875  137.3519  165.3466 Cl      1  UNL1       -0.0822
     13 C         138.7885  138.1421  162.8737 C.ar    1  UNL1        0.0226
     14 C         139.5821  138.4351  161.6350 C.ar    1  UNL1        0.0589
     15 CL        138.8896  138.9323  160.4008 Cl      1  UNL1       -0.0824
     16 C         143.0164  136.6929  157.0655 C.ar    1  UNL1        0.1931
     17 N         143.0713  135.2143  157.3124 N.ar    1  UNL1       -0.2297
     18 C         143.2626  134.5305  155.9911 C.ar    1  UNL1        0.1067
     19 C         143.3259  135.5864  154.9276 C.ar    1  UNL1        0.0577
     20 S         143.1737  136.9228  155.5916 S.2     1  UNL1       -0.0586
     21 C         142.2942  140.9411  161.2405 C.2     1  UNL1        0.3447
     22 O         141.0208  141.7321  161.2933 O.2     1  UNL1       -0.2450
     23 O         143.3870  141.2122  162.2315 O.3     1  UNL1       -0.4455
     24 C         144.9515  139.9150  163.8501 C.3     1  UNL1        0.0513
     25 C         144.4631  140.1923  162.4592 C.3     1  UNL1        0.2089
     26 C         143.8813  141.5271  158.7631 C.3     1  UNL1        0.1407
     27 N         143.5397  142.3370  157.5476 N.3     1  UNL1       -0.2584
     28 C         142.3033  143.1863  157.5354 C.3     1  UNL1        0.1052
     29 C         141.9617  143.9962  156.3199 C.3     1  UNL1        0.1595
     30 O         142.8565  143.9568  155.1166 O.3     1  UNL1       -0.3505
     31 C         144.0928  143.1075  155.1288 C.3     1  UNL1        0.1637
     32 C         144.4344  142.2976  156.3443 C.3     1  UNL1        0.1247
     33 C         145.6708  141.4483  156.3565 C.2     1  UNL1        0.0673
     34 O         145.5684  139.9711  156.1165 O.co2   1  UNL1       -0.5477
     35 O         147.0095  142.0761  156.6087 O.co2   1  UNL1       -0.5477
@<TRIPOS>UNITY_ATOM_ATTR
34 1
charge -1
@<TRIPOS>BOND
     1    24    25    1
     2    25    23    1
     3    23    21    1
     4    21    22    2
     5    21     1    1
     6     1     2    2
     7     2    26    1
     8    26    27    1
     9    27    28    1
    10    28    29    1
    11    29    30    1
    12    30    31    1
    13    31    32    1
    14    32    33    1
    15    33    34   ar
    16    33    35   ar
    17     2     3    1
    18     3     4    1
    19     4    16    1
    20    16    17   ar
    21    17    18   ar
    22    18    19   ar
    23    19    20   ar
    24     4     5    2
    25     5     6    1
    26     6     8    1
    27     8     9   ar
    28     9    10   ar
    29    10    11   ar
    30    11    12    1
    31    11    13   ar
    32    13    14   ar
    33    14    15    1
    34     6     1    1
    35    14     8   ar
    36    32    27    1
    37    20    16   ar
    38     3     7    1
@<TRIPOS>MOLECULE
*****
 35 38 0 0 0
SMALL
GASTEIGER

@<TRIPOS>ATOM
      1 C         139.1531  140.7874  160.6557 C.2     1  UNL1        0.1397
      2 C         139.1687  140.0576  159.3453 C.2     1  UNL1        0.1355
      3 N         138.7878  140.7736  158.0835 N.pl3   1  UNL1       -0.1998
      4 C         138.3914  142.2194  158.1319 C.2     1  UNL1        0.3442
      5 N         138.3759  142.9492  159.4422 N.2     1  UNL1       -0.0580
      6 C         138.7567  142.2333  160.7041 C.3     1  UNL1        0.2695
      7 H         138.7980  140.2945  157.2234 H       1  UNL1        0.2983
      8 C         138.7412  142.9632  162.0145 C.ar    1  UNL1        0.0414
      9 C         137.5528  142.8489  162.9226 C.ar    1  UNL1        0.0019
     10 C         137.5372  143.5788  164.2329 C.ar    1  UNL1        0.0113
     11 C         138.7101  144.4230  164.6352 C.ar    1  UNL1        0.0585
     12 CL        138.6945  145.1529  165.9455 Cl      1  UNL1       -0.0822
     13 C         139.8984  144.5373  163.7271 C.ar    1  UNL1        0.0226
     14 C         139.9140  143.8074  162.4167 C.ar    1  UNL1        0.0589
     15 CL        141.1024  143.9217  161.5086 Cl      1  UNL1       -0.0824
     16 C         138.0105  142.9354  156.8700 C.ar    1  UNL1        0.1931
     17 N         138.7323  144.1040  156.2672 N.ar    1  UNL1       -0.2297
     18 C         138.0089  144.4993  155.0140 C.ar    1  UNL1        0.1067
     19 C         136.8400  143.5750  154.8423 C.ar    1  UNL1        0.0577
     20 S         136.8411  142.6084  155.9894 S.2     1  UNL1       -0.0586
     21 C         139.5340  140.0715  161.9175 C.2     1  UNL1        0.3447
     22 O         140.9406  140.1546  162.4317 O.2     1  UNL1       -0.2450
     23 O         138.5082  139.2724  162.6653 O.3     1  UNL1       -0.4455
     24 C         139.0803  137.7271  164.6740 C.3     1  UNL1        0.0513
     25 C         138.8593  137.9166  163.2025 C.3     1  UNL1        0.2089
     26 C         139.5651  138.6117  159.2968 C.3     1  UNL1        0.1407
     27 N         140.4409  138.1109  158.1868 N.3     1  UNL1       -0.2584
     28 C         139.8259  137.6178  156.9106 C.3     1  UNL1        0.1052
     29 C         140.7018  137.1170  155.8005 C.3     1  UNL1        0.1595
     30 O         142.1925  137.1095  155.9667 O.3     1  UNL1       -0.3505
     31 C         142.8075  137.6026  157.2429 C.3     1  UNL1        0.1637
     32 C         141.9317  138.1034  158.3529 C.3     1  UNL1        0.1247
     33 C         142.5466  138.5965  159.6291 C.2     1  UNL1        0.0673
     34 O         142.7125  137.6630  160.7915 O.co2   1  UNL1       -0.5477
     35 O         142.9956  140.0232  159.7430 O.co2   1  UNL1       -0.5477
@<TRIPOS>UNITY_ATOM_ATTR
34 1
charge -1
@<TRIPOS>BOND
     1    24    25    1
     2    25    23    1
     3    23    21    1
     4    21    22    2
     5    21     1    1
     6     1     2    2
     7     2    26    1
     8    26    27    1
     9    27    28    1
    10    28    29    1
    11    29    30    1
    12    30    31    1
    13    31    32    1
    14    32    33    1
    15    33    34   ar
    16    33    35   ar
    17     2     3    1
    18     3     4    1
    19     4    16    1
    20    16    17   ar
    21    17    18   ar
    22    18    19   ar
    23    19    20   ar
    24     4     5    2
    25     5     6    1
    26     6     8    1
    27     8     9   ar
    28     9    10   ar
    29    10    11   ar
    30    11    12    1
    31    11    13   ar
    32    13    14   ar
    33    14    15    1
    34     6     1    1
    35    14     8   ar
    36    32    27    1
    37    20    16   ar
    38     3     7    1
@<TRIPOS>MOLECULE
*****
 35 38 0 0 0
SMALL
GASTEIGER

@<TRIPOS>ATOM
      1 C         140.2203  140.9632  160.6622 C.2     1  UNL1        0.1397
      2 C         140.3869  140.1644  159.4037 C.2     1  UNL1        0.1355
      3 N         139.4280  140.3498  158.2652 N.pl3   1  UNL1       -0.1998
      4 C         138.3025  141.3340  158.3853 C.2     1  UNL1        0.3442
      5 N         138.1360  142.1329  159.6438 N.2     1  UNL1       -0.0580
      6 C         139.0949  141.9475  160.7823 C.3     1  UNL1        0.2695
      7 H         139.5373  139.8254  157.4392 H       1  UNL1        0.2983
      8 C         138.9283  142.7465  162.0409 C.ar    1  UNL1        0.0414
      9 C         139.6325  144.0621  162.1928 C.ar    1  UNL1        0.0019
     10 C         139.4660  144.8611  163.4513 C.ar    1  UNL1        0.0113
     11 C         138.5951  144.3444  164.5580 C.ar    1  UNL1        0.0585
     12 CL        138.4285  145.1434  165.8165 Cl      1  UNL1       -0.0822
     13 C         137.8908  143.0288  164.4061 C.ar    1  UNL1        0.0226
     14 C         138.0574  142.2298  163.1475 C.ar    1  UNL1        0.0589
     15 CL        137.3532  140.9141  162.9956 Cl      1  UNL1       -0.0824
     16 C         137.3436  141.5194  157.2468 C.ar    1  UNL1        0.1931
     17 N         136.2513  140.5709  156.8507 N.ar    1  UNL1       -0.2297
     18 C         135.5413  141.1511  155.6636 C.ar    1  UNL1        0.1067
     19 C         136.1948  142.4584  155.3260 C.ar    1  UNL1        0.0577
     20 S         137.3087  142.6860  156.3045 S.2     1  UNL1       -0.0586
     21 C         141.1792  140.7778  161.8007 C.2     1  UNL1        0.3447
     22 O         142.4977  141.4931  161.7949 O.2     1  UNL1       -0.2450
     23 O         140.8197  139.8772  162.9450 O.3     1  UNL1       -0.4455
     24 C         139.2436  137.8231  162.7285 C.3     1  UNL1        0.0513
     25 C         140.6246  138.4085  162.7109 C.3     1  UNL1        0.2089
     26 C         141.5124  139.1800  159.2836 C.3     1  UNL1        0.1407
     27 N         142.6040  139.4077  158.2804 N.3     1  UNL1       -0.2584
     28 C         143.6441  140.4595  158.5294 C.3     1  UNL1        0.1052
     29 C         144.7357  140.6871  157.5261 C.3     1  UNL1        0.1595
     30 O         144.7873  139.8630  156.2739 O.3     1  UNL1       -0.3505
     31 C         143.7473  138.8111  156.0249 C.3     1  UNL1        0.1637
     32 C         142.6557  138.5835  157.0281 C.3     1  UNL1        0.1247
     33 C         141.6157  137.5316  156.7791 C.2     1  UNL1        0.0673
     34 O         140.1971  137.9310  156.4990 O.co2   1  UNL1       -0.5477
     35 O         141.9941  136.0805  156.8102 O.co2   1  UNL1       -0.5477
@<TRIPOS>UNITY_ATOM_ATTR
34 1
charge -1
@<TRIPOS>BOND
     1    24    25    1
     2    25    23    1
     3    23    21    1
     4    21    22    2
     5    21     1    1
     6     1     2    2
     7     2    26    1
     8    26    27    1
     9    27    28    1
    10    28    29    1
    11    29    30    1
    12    30    31    1
    13    31    32    1
    14    32    33    1
    15    33    34   ar
    16    33    35   ar
    17     2     3    1
    18     3     4    1
    19     4    16    1
    20    16    17   ar
    21    17    18   ar
    22    18    19   ar
    23    19    20   ar
    24     4     5    2
    25     5     6    1
    26     6     8    1
    27     8     9   ar
    28     9    10   ar
    29    10    11   ar
    30    11    12    1
    31    11    13   ar
    32    13    14   ar
    33    14    15    1
    34     6     1    1
    35    14     8   ar
    36    32    27    1
    37    20    16   ar
    38     3     7    1
