@<TRIPOS>MOLECULE
*****
 29 32 0 0 0
SMALL
GASTEIGER

@<TRIPOS>ATOM
      1 C         145.3823  139.6174  164.1815 C.3     1  UNL1        0.0541
      2 C         144.4627  140.7221  163.7525 C.ar    1  UNL1        0.0836
      3 N         144.7908  141.5429  162.5407 N.ar    1  UNL1       -0.1510
      4 N         143.8711  142.6476  162.1116 N.ar    1  UNL1       -0.1316
      5 C         142.6235  142.9314  162.8944 C.ar    1  UNL1        0.1730
      6 C         142.2954  142.1105  164.1062 C.ar    1  UNL1        0.1367
      7 N         141.1460  142.1569  165.0689 N.ar    1  UNL1       -0.1625
      8 N         141.3553  141.0810  166.0929 N.ar    1  UNL1       -0.2336
      9 C         142.6340  140.3696  165.7631 C.ar    1  UNL1        0.0636
     10 C         143.2275  139.2232  166.5270 C.3     1  UNL1        0.0522
     11 C         143.2151  141.0059  164.5352 C.ar    1  UNL1        0.0511
     12 N         141.7039  144.0360  162.4653 N.pl3   1  UNL1       -0.2877
     13 C         141.0609  145.0480  163.3666 C.3     1  UNL1        0.0952
     14 C         140.2254  145.9601  162.5180 C.3     1  UNL1        0.0585
     15 C         140.3520  145.5117  161.0922 C.3     1  UNL1        0.1823
     16 F         139.6825  146.1419  159.9070 F       1  UNL1       -0.2354
     17 C         141.2658  144.3226  161.0597 C.3     1  UNL1        0.1274
     18 C         140.4455  140.7709  167.2445 C.ar    1  UNL1        0.0826
     19 C         139.3357  139.7759  167.0767 C.ar    1  UNL1        0.0222
     20 C         138.4259  139.4658  168.2283 C.ar    1  UNL1        0.0384
     21 C         138.6260  140.1508  169.5477 C.ar    1  UNL1        0.1391
     22 C         139.7358  141.1458  169.7155 C.ar    1  UNL1        0.0384
     23 C         140.6456  141.4559  168.5639 C.ar    1  UNL1        0.0222
     24 O         137.7162  139.8407  170.6993 O.3     1  UNL1       -0.4666
     25 C         136.7464  138.7005  170.6030 C.3     1  UNL1        0.3081
     26 C         135.8424  138.3852  171.7578 C.3     1  UNL1        0.4380
     27 F         134.9384  138.0700  172.9125 F       1  UNL1       -0.1663
     28 F         135.4637  139.8333  171.8567 F       1  UNL1       -0.1663
     29 F         136.2211  136.9372  171.6589 F       1  UNL1       -0.1663
@<TRIPOS>BOND
     1     1     2    1
     2     2     3   ar
     3     3     4   ar
     4     4     5   ar
     5     5    12    1
     6    12    13    1
     7    13    14    1
     8    14    15    1
     9    15    16    1
    10    15    17    1
    11     5     6   ar
    12     6     7   ar
    13     7     8   ar
    14     8    18    1
    15    18    19   ar
    16    19    20   ar
    17    20    21   ar
    18    21    24    1
    19    24    25    1
    20    25    26    1
    21    26    27    1
    22    26    28    1
    23    26    29    1
    24    21    22   ar
    25    22    23   ar
    26     8     9   ar
    27     9    10    1
    28     9    11   ar
    29    11     2   ar
    30    17    12    1
    31    11     6   ar
    32    23    18   ar
@<TRIPOS>MOLECULE
*****
 29 32 0 0 0
SMALL
GASTEIGER

@<TRIPOS>ATOM
      1 C         137.5026  137.6606  161.7150 C.3     1  UNL1        0.0541
      2 C         138.0464  139.0542  161.6057 C.ar    1  UNL1        0.0836
      3 N         137.8358  139.8450  160.3486 N.ar    1  UNL1       -0.1510
      4 N         138.3796  141.2387  160.2393 N.ar    1  UNL1       -0.1316
      5 C         139.1339  141.8416  161.3871 C.ar    1  UNL1        0.1730
      6 C         139.3445  141.0509  162.6442 C.ar    1  UNL1        0.1367
      7 N         140.0423  141.3784  163.9309 N.ar    1  UNL1       -0.1625
      8 N         139.9299  140.1871  164.8355 N.ar    1  UNL1       -0.2336
      9 C         139.1625  139.1234  164.1078 C.ar    1  UNL1        0.0636
     10 C         138.8175  137.7644  164.6408 C.3     1  UNL1        0.0522
     11 C         138.8007  139.6572  162.7535 C.ar    1  UNL1        0.0511
     12 N         139.6777  143.2353  161.2778 N.pl3   1  UNL1       -0.2877
     13 C         140.8173  143.6712  160.4053 C.3     1  UNL1        0.0952
     14 C         141.0213  145.1431  160.6100 C.3     1  UNL1        0.0585
     15 C         140.0077  145.6169  161.6091 C.3     1  UNL1        0.1823
     16 F         139.8518  147.0229  162.1079 F       1  UNL1       -0.2354
     17 C         139.1773  144.4378  162.0217 C.3     1  UNL1        0.1274
     18 C         140.4870  140.0787  166.2240 C.ar    1  UNL1        0.0826
     19 C         139.5734  140.1844  167.4090 C.ar    1  UNL1        0.0222
     20 C         140.1305  140.0759  168.7975 C.ar    1  UNL1        0.0384
     21 C         141.6011  139.8618  169.0010 C.ar    1  UNL1        0.1391
     22 C         142.5146  139.7561  167.8160 C.ar    1  UNL1        0.0384
     23 C         141.9575  139.8646  166.4275 C.ar    1  UNL1        0.0222
     24 O         142.1582  139.7533  170.3895 O.3     1  UNL1       -0.4666
     25 C         142.2598  140.9747  171.2543 C.3     1  UNL1        0.3081
     26 C         142.1039  142.3379  170.6483 C.3     1  UNL1        0.4380
     27 F         141.9479  143.7012  170.0423 F       1  UNL1       -0.1663
     28 F         140.6954  142.4042  171.1599 F       1  UNL1       -0.1663
     29 F         143.5124  142.2716  170.1367 F       1  UNL1       -0.1663
@<TRIPOS>BOND
     1     1     2    1
     2     2     3   ar
     3     3     4   ar
     4     4     5   ar
     5     5    12    1
     6    12    13    1
     7    13    14    1
     8    14    15    1
     9    15    16    1
    10    15    17    1
    11     5     6   ar
    12     6     7   ar
    13     7     8   ar
    14     8    18    1
    15    18    19   ar
    16    19    20   ar
    17    20    21   ar
    18    21    24    1
    19    24    25    1
    20    25    26    1
    21    26    27    1
    22    26    28    1
    23    26    29    1
    24    21    22   ar
    25    22    23   ar
    26     8     9   ar
    27     9    10    1
    28     9    11   ar
    29    11     2   ar
    30    17    12    1
    31    11     6   ar
    32    23    18   ar
@<TRIPOS>MOLECULE
*****
 29 32 0 0 0
SMALL
GASTEIGER

@<TRIPOS>ATOM
      1 C         137.2328  138.0049  167.0030 C.3     1  UNL1        0.0541
      2 C         138.2957  138.8986  167.5701 C.ar    1  UNL1        0.0836
      3 N         138.1804  139.4004  168.9790 N.ar    1  UNL1       -0.1510
      4 N         139.2432  140.2941  169.5461 N.ar    1  UNL1       -0.1316
      5 C         140.4213  140.6860  168.7045 C.ar    1  UNL1        0.1730
      6 C         140.5366  140.1842  167.2956 C.ar    1  UNL1        0.1367
      7 N         141.5752  140.4001  166.2351 N.ar    1  UNL1       -0.1625
      8 N         141.1543  139.6398  165.0125 N.ar    1  UNL1       -0.2336
      9 C         139.8555  138.9540  165.3174 C.ar    1  UNL1        0.0636
     10 C         139.0754  138.0845  164.3765 C.3     1  UNL1        0.0522
     11 C         139.4737  139.2905  166.7285 C.ar    1  UNL1        0.0511
     12 N         141.4841  141.5797  169.2716 N.pl3   1  UNL1       -0.2877
     13 C         141.2535  142.8612  170.0164 C.3     1  UNL1        0.0952
     14 C         142.5910  143.4224  170.3987 C.3     1  UNL1        0.0585
     15 C         143.6483  142.4877  169.8902 C.3     1  UNL1        0.1823
     16 F         145.1296  142.6613  170.0501 F       1  UNL1       -0.2354
     17 C         142.9642  141.3489  169.1936 C.3     1  UNL1        0.1274
     18 C         141.9010  139.5763  163.7131 C.ar    1  UNL1        0.0826
     19 C         143.1778  138.7948  163.6192 C.ar    1  UNL1        0.0222
     20 C         143.9246  138.7314  162.3199 C.ar    1  UNL1        0.0384
     21 C         143.3945  139.4495  161.1144 C.ar    1  UNL1        0.1391
     22 C         142.1176  140.2310  161.2082 C.ar    1  UNL1        0.0384
     23 C         141.3709  140.2944  162.5076 C.ar    1  UNL1        0.0222
     24 O         144.1412  139.3861  159.8150 O.3     1  UNL1       -0.4666
     25 C         143.6930  140.2191  158.6509 C.3     1  UNL1        0.3081
     26 C         144.5159  141.3920  158.2070 C.3     1  UNL1        0.4380
     27 F         145.3388  142.5649  157.7630 F       1  UNL1       -0.1663
     28 F         143.8138  142.2628  159.2064 F       1  UNL1       -0.1663
     29 F         145.2179  140.5212  157.2076 F       1  UNL1       -0.1663
@<TRIPOS>BOND
     1     1     2    1
     2     2     3   ar
     3     3     4   ar
     4     4     5   ar
     5     5    12    1
     6    12    13    1
     7    13    14    1
     8    14    15    1
     9    15    16    1
    10    15    17    1
    11     5     6   ar
    12     6     7   ar
    13     7     8   ar
    14     8    18    1
    15    18    19   ar
    16    19    20   ar
    17    20    21   ar
    18    21    24    1
    19    24    25    1
    20    25    26    1
    21    26    27    1
    22    26    28    1
    23    26    29    1
    24    21    22   ar
    25    22    23   ar
    26     8     9   ar
    27     9    10    1
    28     9    11   ar
    29    11     2   ar
    30    17    12    1
    31    11     6   ar
    32    23    18   ar
@<TRIPOS>MOLECULE
*****
 29 32 0 0 0
SMALL
GASTEIGER

@<TRIPOS>ATOM
      1 C         139.6475  145.9337  161.8410 C.3     1  UNL1        0.0541
      2 C         140.3545  144.6374  161.5770 C.ar    1  UNL1        0.0836
      3 N         140.9137  144.3519  160.2148 N.ar    1  UNL1       -0.1510
      4 N         141.6207  143.0556  159.9508 N.ar    1  UNL1       -0.1316
      5 C         141.7686  142.0447  161.0490 C.ar    1  UNL1        0.1730
      6 C         141.2094  142.3302  162.4113 C.ar    1  UNL1        0.1367
      7 N         141.2021  141.5313  163.6808 N.ar    1  UNL1       -0.1625
      8 N         140.4905  142.3338  164.7295 N.ar    1  UNL1       -0.2336
      9 C         140.0581  143.6287  164.1080 C.ar    1  UNL1        0.0636
     10 C         139.3123  144.7322  164.7980 C.3     1  UNL1        0.0522
     11 C         140.5024  143.6265  162.6753 C.ar    1  UNL1        0.0511
     12 N         142.4756  140.7484  160.7850 N.pl3   1  UNL1       -0.2877
     13 C         143.7823  140.3190  161.3834 C.3     1  UNL1        0.0952
     14 C         144.1144  138.9591  160.8445 C.3     1  UNL1        0.0585
     15 C         143.0129  138.5480  159.9130 C.3     1  UNL1        0.1823
     16 F         142.9374  137.2577  159.1519 F       1  UNL1       -0.2354
     17 C         142.0001  139.6539  159.8763 C.3     1  UNL1        0.1274
     18 C         140.2530  141.9150  166.1501 C.ar    1  UNL1        0.0826
     19 C         139.7110  140.5486  166.4485 C.ar    1  UNL1        0.0222
     20 C         139.4736  140.1297  167.8692 C.ar    1  UNL1        0.0384
     21 C         139.7781  141.0773  168.9913 C.ar    1  UNL1        0.1391
     22 C         140.3201  142.4437  168.6929 C.ar    1  UNL1        0.0384
     23 C         140.5576  142.8625  167.2723 C.ar    1  UNL1        0.0222
     24 O         139.5407  140.6584  170.4120 O.3     1  UNL1       -0.4666
     25 C         140.6997  140.2833  171.2870 C.3     1  UNL1        0.3081
     26 C         142.1018  140.4067  170.7684 C.3     1  UNL1        0.4380
     27 F         143.5039  140.5302  170.2498 F       1  UNL1       -0.1663
     28 F         142.0168  139.0179  170.2080 F       1  UNL1       -0.1663
     29 F         142.1868  141.7955  171.3288 F       1  UNL1       -0.1663
@<TRIPOS>BOND
     1     1     2    1
     2     2     3   ar
     3     3     4   ar
     4     4     5   ar
     5     5    12    1
     6    12    13    1
     7    13    14    1
     8    14    15    1
     9    15    16    1
    10    15    17    1
    11     5     6   ar
    12     6     7   ar
    13     7     8   ar
    14     8    18    1
    15    18    19   ar
    16    19    20   ar
    17    20    21   ar
    18    21    24    1
    19    24    25    1
    20    25    26    1
    21    26    27    1
    22    26    28    1
    23    26    29    1
    24    21    22   ar
    25    22    23   ar
    26     8     9   ar
    27     9    10    1
    28     9    11   ar
    29    11     2   ar
    30    17    12    1
    31    11     6   ar
    32    23    18   ar
@<TRIPOS>MOLECULE
*****
 29 32 0 0 0
SMALL
GASTEIGER

@<TRIPOS>ATOM
      1 C         144.4692  141.8674  158.5379 C.3     1  UNL1        0.0541
      2 C         144.0802  140.5329  157.9742 C.ar    1  UNL1        0.0836
      3 N         144.5659  140.1221  156.6158 N.ar    1  UNL1       -0.1510
      4 N         144.1770  138.7875  156.0522 N.ar    1  UNL1       -0.1316
      5 C         143.3023  137.8638  156.8469 C.ar    1  UNL1        0.1730
      6 C         142.8166  138.2746  158.2053 C.ar    1  UNL1        0.1367
      7 N         141.9493  137.5806  159.2134 N.ar    1  UNL1       -0.1625
      8 N         141.8023  138.4862  160.4001 N.ar    1  UNL1       -0.2336
      9 C         142.5787  139.7399  160.1254 C.ar    1  UNL1        0.0636
     10 C         142.7059  140.9177  161.0456 C.3     1  UNL1        0.0522
     11 C         143.2055  139.6092  158.7689 C.ar    1  UNL1        0.0511
     12 N         142.9133  136.5293  156.2832 N.pl3   1  UNL1       -0.2877
     13 C         141.5224  136.0929  155.9300 C.3     1  UNL1        0.0952
     14 C         141.5964  134.6907  155.4023 C.3     1  UNL1        0.0585
     15 C         143.0331  134.2605  155.4294 C.3     1  UNL1        0.1823
     16 F         143.5630  132.9280  154.9893 F       1  UNL1       -0.2354
     17 C         143.8470  135.3968  155.9738 C.3     1  UNL1        0.1274
     18 C         141.0169  138.1901  161.6433 C.ar    1  UNL1        0.0826
     19 C         141.7285  137.8027  162.9056 C.ar    1  UNL1        0.0222
     20 C         140.9430  137.5065  164.1487 C.ar    1  UNL1        0.0384
     21 C         139.4459  137.5979  164.1295 C.ar    1  UNL1        0.1391
     22 C         138.7343  137.9853  162.8672 C.ar    1  UNL1        0.0384
     23 C         139.5198  138.2814  161.6241 C.ar    1  UNL1        0.0222
     24 O         138.6605  137.3017  165.3726 O.3     1  UNL1       -0.4666
     25 C         138.1832  138.4257  166.2438 C.3     1  UNL1        0.3081
     26 C         138.8003  139.7870  166.1170 C.3     1  UNL1        0.4380
     27 F         139.4174  141.1482  165.9901 F       1  UNL1       -0.1663
     28 F         137.6695  140.2170  165.2303 F       1  UNL1       -0.1663
     29 F         139.9312  139.3569  167.0037 F       1  UNL1       -0.1663
@<TRIPOS>BOND
     1     1     2    1
     2     2     3   ar
     3     3     4   ar
     4     4     5   ar
     5     5    12    1
     6    12    13    1
     7    13    14    1
     8    14    15    1
     9    15    16    1
    10    15    17    1
    11     5     6   ar
    12     6     7   ar
    13     7     8   ar
    14     8    18    1
    15    18    19   ar
    16    19    20   ar
    17    20    21   ar
    18    21    24    1
    19    24    25    1
    20    25    26    1
    21    26    27    1
    22    26    28    1
    23    26    29    1
    24    21    22   ar
    25    22    23   ar
    26     8     9   ar
    27     9    10    1
    28     9    11   ar
    29    11     2   ar
    30    17    12    1
    31    11     6   ar
    32    23    18   ar
@<TRIPOS>MOLECULE
*****
 29 32 0 0 0
SMALL
GASTEIGER

@<TRIPOS>ATOM
      1 C         139.6188  146.0126  161.9014 C.3     1  UNL1        0.0541
      2 C         139.7953  144.6505  161.2985 C.ar    1  UNL1        0.0836
      3 N         139.7653  144.4801  159.8086 N.ar    1  UNL1       -0.1510
      4 N         139.9418  143.1179  159.2058 N.ar    1  UNL1       -0.1316
      5 C         140.1482  141.9261  160.0929 C.ar    1  UNL1        0.1730
      6 C         140.1782  142.0966  161.5829 C.ar    1  UNL1        0.1367
      7 N         140.3626  141.1148  162.7019 N.ar    1  UNL1       -0.1625
      8 N         140.3001  141.8702  163.9963 N.ar    1  UNL1       -0.2336
      9 C         140.0771  143.3188  163.6773 C.ar    1  UNL1        0.0636
     10 C         139.9514  144.4321  164.6747 C.3     1  UNL1        0.0522
     11 C         140.0017  143.4587  162.1857 C.ar    1  UNL1        0.0511
     12 N         140.3247  140.5640  159.4901 N.pl3   1  UNL1       -0.2877
     13 C         139.2428  139.7228  158.8803 C.3     1  UNL1        0.0952
     14 C         139.8634  138.4427  158.4046 C.3     1  UNL1        0.0585
     15 C         141.3290  138.4928  158.7204 C.3     1  UNL1        0.1823
     16 F         142.3332  137.4203  158.4183 F       1  UNL1       -0.2354
     17 C         141.6140  139.8038  159.3913 C.3     1  UNL1        0.1274
     18 C         140.4366  141.2805  165.3688 C.ar    1  UNL1        0.0826
     19 C         141.7125  141.4570  166.1374 C.ar    1  UNL1        0.0222
     20 C         141.8490  140.8673  167.5098 C.ar    1  UNL1        0.0384
     21 C         140.7096  140.1012  168.1137 C.ar    1  UNL1        0.1391
     22 C         139.4337  139.9247  167.3451 C.ar    1  UNL1        0.0384
     23 C         139.2972  140.5144  165.9726 C.ar    1  UNL1        0.0222
     24 O         140.8461  139.5115  169.4862 O.3     1  UNL1       -0.4666
     25 C         140.3510  140.2707  170.6813 C.3     1  UNL1        0.3081
     26 C         139.9771  141.7173  170.5488 C.3     1  UNL1        0.4380
     27 F         139.6032  143.1639  170.4162 F       1  UNL1       -0.1663
     28 F         138.5559  141.3247  170.2728 F       1  UNL1       -0.1663
     29 F         141.3983  142.1099  170.8247 F       1  UNL1       -0.1663
@<TRIPOS>BOND
     1     1     2    1
     2     2     3   ar
     3     3     4   ar
     4     4     5   ar
     5     5    12    1
     6    12    13    1
     7    13    14    1
     8    14    15    1
     9    15    16    1
    10    15    17    1
    11     5     6   ar
    12     6     7   ar
    13     7     8   ar
    14     8    18    1
    15    18    19   ar
    16    19    20   ar
    17    20    21   ar
    18    21    24    1
    19    24    25    1
    20    25    26    1
    21    26    27    1
    22    26    28    1
    23    26    29    1
    24    21    22   ar
    25    22    23   ar
    26     8     9   ar
    27     9    10    1
    28     9    11   ar
    29    11     2   ar
    30    17    12    1
    31    11     6   ar
    32    23    18   ar
@<TRIPOS>MOLECULE
*****
 29 32 0 0 0
SMALL
GASTEIGER

@<TRIPOS>ATOM
      1 C         137.7500  138.7921  166.2296 C.3     1  UNL1        0.0541
      2 C         138.7752  139.5832  166.9866 C.ar    1  UNL1        0.0836
      3 N         138.9981  139.3195  168.4463 N.ar    1  UNL1       -0.1510
      4 N         140.0233  140.1106  169.2034 N.ar    1  UNL1       -0.1316
      5 C         140.8257  141.1653  168.5008 C.ar    1  UNL1        0.1730
      6 C         140.6028  141.4289  167.0411 C.ar    1  UNL1        0.1367
      7 N         141.2379  142.3973  166.0876 N.ar    1  UNL1       -0.1625
      8 N         140.6051  142.2047  164.7413 N.ar    1  UNL1       -0.2336
      9 C         139.5791  141.1174  164.8627 C.ar    1  UNL1        0.0636
     10 C         138.7074  140.6002  163.7569 C.3     1  UNL1        0.0522
     11 C         139.5776  140.6379  166.2840 C.ar    1  UNL1        0.0511
     12 N         141.8509  141.9563  169.2579 N.pl3   1  UNL1       -0.2877
     13 C         141.5684  143.0540  170.2404 C.3     1  UNL1        0.0952
     14 C         142.8816  143.5647  170.7551 C.3     1  UNL1        0.0585
     15 C         143.9756  142.7826  170.0907 C.3     1  UNL1        0.1823
     16 F         145.4481  142.9629  170.3126 F       1  UNL1       -0.2354
     17 C         143.3386  141.7886  169.1653 C.3     1  UNL1        0.1274
     18 C         140.9398  142.9659  163.4929 C.ar    1  UNL1        0.0826
     19 C         142.2677  142.7647  162.8250 C.ar    1  UNL1        0.0222
     20 C         142.6023  143.5259  161.5766 C.ar    1  UNL1        0.0384
     21 C         141.6090  144.4882  160.9959 C.ar    1  UNL1        0.1391
     22 C         140.2810  144.6894  161.6638 C.ar    1  UNL1        0.0384
     23 C         139.9464  143.9282  162.9122 C.ar    1  UNL1        0.0222
     24 O         141.9436  145.2494  159.7475 O.3     1  UNL1       -0.4666
     25 C         141.3321  144.8483  158.4379 C.3     1  UNL1        0.3081
     26 C         140.5832  145.8578  157.6193 C.3     1  UNL1        0.4380
     27 F         139.8344  146.8673  156.8007 F       1  UNL1       -0.1663
     28 F         139.8549  146.3143  158.8486 F       1  UNL1       -0.1663
     29 F         141.3116  145.4013  156.3900 F       1  UNL1       -0.1663
@<TRIPOS>BOND
     1     1     2    1
     2     2     3   ar
     3     3     4   ar
     4     4     5   ar
     5     5    12    1
     6    12    13    1
     7    13    14    1
     8    14    15    1
     9    15    16    1
    10    15    17    1
    11     5     6   ar
    12     6     7   ar
    13     7     8   ar
    14     8    18    1
    15    18    19   ar
    16    19    20   ar
    17    20    21   ar
    18    21    24    1
    19    24    25    1
    20    25    26    1
    21    26    27    1
    22    26    28    1
    23    26    29    1
    24    21    22   ar
    25    22    23   ar
    26     8     9   ar
    27     9    10    1
    28     9    11   ar
    29    11     2   ar
    30    17    12    1
    31    11     6   ar
    32    23    18   ar
@<TRIPOS>MOLECULE
*****
 29 32 0 0 0
SMALL
GASTEIGER

@<TRIPOS>ATOM
      1 C         139.6118  146.3219  161.8398 C.3     1  UNL1        0.0541
      2 C         140.3378  145.1681  161.2139 C.ar    1  UNL1        0.0836
      3 N         140.6316  145.1759  159.7431 N.ar    1  UNL1       -0.1510
      4 N         141.3575  144.0220  159.1172 N.ar    1  UNL1       -0.1316
      5 C         141.7896  142.8605  159.9622 C.ar    1  UNL1        0.1730
      6 C         141.4957  142.8528  161.4330 C.ar    1  UNL1        0.1367
      7 N         141.7960  141.8542  162.5113 N.ar    1  UNL1       -0.1625
      8 N         141.2556  142.3908  163.8036 N.ar    1  UNL1       -0.2336
      9 C         140.6214  143.7210  163.5240 C.ar    1  UNL1        0.0636
     10 C         139.9557  144.6098  164.5325 C.3     1  UNL1        0.0522
     11 C         140.7698  144.0066  162.0589 C.ar    1  UNL1        0.0511
     12 N         142.5155  141.7067  159.3363 N.pl3   1  UNL1       -0.2877
     13 C         143.8374  141.7749  158.6307 C.3     1  UNL1        0.0952
     14 C         144.1859  140.3924  158.1644 C.3     1  UNL1        0.0585
     15 C         143.0793  139.4698  158.5818 C.3     1  UNL1        0.1823
     16 F         143.0161  137.9940  158.3208 F       1  UNL1       -0.2354
     17 C         142.0470  140.2820  159.3061 C.3     1  UNL1        0.1274
     18 C         141.3354  141.7157  165.1407 C.ar    1  UNL1        0.0826
     19 C         140.2599  140.7594  165.5635 C.ar    1  UNL1        0.0222
     20 C         140.3397  140.0843  166.9006 C.ar    1  UNL1        0.0384
     21 C         141.4951  140.3655  167.8150 C.ar    1  UNL1        0.1391
     22 C         142.5706  141.3217  167.3922 C.ar    1  UNL1        0.0384
     23 C         142.4908  141.9968  166.0551 C.ar    1  UNL1        0.0222
     24 O         141.5749  139.6903  169.1521 O.3     1  UNL1       -0.4666
     25 C         140.5449  139.9827  170.2025 C.3     1  UNL1        0.3081
     26 C         139.9874  141.3684  170.3412 C.3     1  UNL1        0.4380
     27 F         139.4300  142.7540  170.4799 F       1  UNL1       -0.1663
     28 F         141.3323  141.8653  170.7820 F       1  UNL1       -0.1663
     29 F         138.6425  140.8714  169.9004 F       1  UNL1       -0.1663
@<TRIPOS>BOND
     1     1     2    1
     2     2     3   ar
     3     3     4   ar
     4     4     5   ar
     5     5    12    1
     6    12    13    1
     7    13    14    1
     8    14    15    1
     9    15    16    1
    10    15    17    1
    11     5     6   ar
    12     6     7   ar
    13     7     8   ar
    14     8    18    1
    15    18    19   ar
    16    19    20   ar
    17    20    21   ar
    18    21    24    1
    19    24    25    1
    20    25    26    1
    21    26    27    1
    22    26    28    1
    23    26    29    1
    24    21    22   ar
    25    22    23   ar
    26     8     9   ar
    27     9    10    1
    28     9    11   ar
    29    11     2   ar
    30    17    12    1
    31    11     6   ar
    32    23    18   ar
@<TRIPOS>MOLECULE
*****
 29 32 0 0 0
SMALL
GASTEIGER

@<TRIPOS>ATOM
      1 C         137.2776  138.3170  167.6862 C.3     1  UNL1        0.0541
      2 C         138.2498  138.6466  166.5925 C.ar    1  UNL1        0.0836
      3 N         138.0628  138.0652  165.2225 N.ar    1  UNL1       -0.1510
      4 N         139.0350  138.3948  164.1287 N.ar    1  UNL1       -0.1316
      5 C         140.1941  139.3058  164.4050 C.ar    1  UNL1        0.1730
      6 C         140.3812  139.8871  165.7750 C.ar    1  UNL1        0.1367
      7 N         141.4208  140.8084  166.3411 N.ar    1  UNL1       -0.1625
      8 N         141.0912  141.0483  167.7846 N.ar    1  UNL1       -0.2336
      9 C         139.8478  140.2751  168.1107 C.ar    1  UNL1        0.0636
     10 C         139.1634  140.2279  169.4447 C.3     1  UNL1        0.0522
     11 C         139.4090  139.5575  166.8688 C.ar    1  UNL1        0.0511
     12 N         141.1663  139.6354  163.3113 N.pl3   1  UNL1       -0.2877
     13 C         140.8838  140.4828  162.1063 C.3     1  UNL1        0.0952
     14 C         142.1345  140.5466  161.2808 C.3     1  UNL1        0.0585
     15 C         143.1902  139.7386  161.9756 C.3     1  UNL1        0.1823
     16 F         144.5972  139.5303  161.4991 F       1  UNL1       -0.2354
     17 C         142.5918  139.1754  163.2305 C.3     1  UNL1        0.1274
     18 C         141.8684  141.9099  168.7352 C.ar    1  UNL1        0.0826
     19 C         143.3306  141.6560  168.9532 C.ar    1  UNL1        0.0222
     20 C         144.1078  142.5176  169.9037 C.ar    1  UNL1        0.0384
     21 C         143.4229  143.6331  170.6362 C.ar    1  UNL1        0.1391
     22 C         141.9608  143.8869  170.4182 C.ar    1  UNL1        0.0384
     23 C         141.1835  143.0253  169.4676 C.ar    1  UNL1        0.0222
     24 O         144.2002  144.4947  171.5867 O.3     1  UNL1       -0.4666
     25 C         145.6646  144.7283  171.3611 C.3     1  UNL1        0.3081
     26 C         146.3364  145.9223  171.9717 C.3     1  UNL1        0.4380
     27 F         147.0083  147.1164  172.5823 F       1  UNL1       -0.1663
     28 F         147.4441  145.0433  172.4720 F       1  UNL1       -0.1663
     29 F         145.2287  146.8014  171.4714 F       1  UNL1       -0.1663
@<TRIPOS>BOND
     1     1     2    1
     2     2     3   ar
     3     3     4   ar
     4     4     5   ar
     5     5    12    1
     6    12    13    1
     7    13    14    1
     8    14    15    1
     9    15    16    1
    10    15    17    1
    11     5     6   ar
    12     6     7   ar
    13     7     8   ar
    14     8    18    1
    15    18    19   ar
    16    19    20   ar
    17    20    21   ar
    18    21    24    1
    19    24    25    1
    20    25    26    1
    21    26    27    1
    22    26    28    1
    23    26    29    1
    24    21    22   ar
    25    22    23   ar
    26     8     9   ar
    27     9    10    1
    28     9    11   ar
    29    11     2   ar
    30    17    12    1
    31    11     6   ar
    32    23    18   ar
