@<TRIPOS>MOLECULE
*****
 41 44 0 0 0
SMALL
GASTEIGER

@<TRIPOS>ATOM
      1 C         139.4378  139.8690  157.4075 C.ar    1  UNL1        0.2434
      2 N         140.1505  140.4490  156.2219 N.ar    1  UNL1       -0.2088
      3 C         139.7300  141.7793  155.6709 C.ar    1  UNL1        0.1022
      4 C         138.5966  142.5295  156.3054 C.ar    1  UNL1        0.0222
      5 C         137.8839  141.9495  157.4910 C.ar    1  UNL1        0.0211
      6 C         138.3044  140.6193  158.0420 C.ar    1  UNL1        0.1058
      7 N         137.5916  140.0394  159.2276 N.am    1  UNL1       -0.2643
      8 C         138.2376  140.0722  160.5809 C.2     1  UNL1        0.3083
      9 O         139.5964  140.6850  160.7487 O.2     1  UNL1       -0.2521
     10 N         137.5248  139.4923  161.7665 N.am    1  UNL1       -0.2681
     11 H         136.6998  139.6372  159.1175 H       1  UNL1        0.1566
     12 H         136.6330  139.0901  161.6564 H       1  UNL1        0.1564
     13 C         138.1708  139.5251  163.1199 C.ar    1  UNL1        0.0518
     14 C         138.9115  138.3232  163.6268 C.ar    1  UNL1        0.0178
     15 C         139.5575  138.3560  164.9801 C.ar    1  UNL1        0.0385
     16 C         139.4628  139.5907  165.8266 C.ar    1  UNL1        0.1469
     17 C         138.7222  140.7926  165.3198 C.ar    1  UNL1        0.0385
     18 C         138.0761  140.7598  163.9664 C.ar    1  UNL1        0.0178
     19 O         140.1088  139.6235  167.1799 O.3     1  UNL1       -0.4045
     20 C         139.2989  139.9872  168.3890 C.3     1  UNL1        0.5753
     21 F         138.4889  140.3508  169.5980 F       1  UNL1       -0.1328
     22 F         140.3903  140.9108  168.8424 F       1  UNL1       -0.1328
     23 F         138.2074  139.0635  167.9357 F       1  UNL1       -0.1328
     24 O         139.8583  138.5388  157.9585 O.3     1  UNL1       -0.4354
     25 C         142.1910  137.4614  157.5742 C.ar    1  UNL1        0.0122
     26 C         143.0944  136.5701  156.7746 C.ar    1  UNL1       -0.0013
     27 C         142.5685  135.8648  155.5597 C.ar    1  UNL1       -0.0001
     28 C         141.1392  136.0508  155.1444 C.ar    1  UNL1        0.0031
     29 C         140.2359  136.9422  155.9440 C.ar    1  UNL1        0.0372
     30 C         140.7618  137.6475  157.1589 C.ar    1  UNL1        0.1432
     31 N         143.7687  139.5773  161.2189 N.3     1  UNL1       -0.2727
     32 C         143.4978  140.3495  159.9619 C.3     1  UNL1        0.0724
     33 C         142.9719  139.6442  158.7470 C.3     1  UNL1        0.0218
     34 C         142.7169  138.1667  158.7891 C.3     1  UNL1        0.0281
     35 C         142.9878  137.3945  160.0462 C.3     1  UNL1        0.0218
     36 C         143.5137  138.0998  161.2611 C.3     1  UNL1        0.0724
     37 C         144.2946  140.2826  162.4339 C.3     1  UNL1        0.0720
     38 C         142.3742  140.5782  163.2851 C.3     1  UNL1        0.0014
     39 C         143.6784  140.0239  163.7767 C.3     1  UNL1        0.0147
     40 C         144.9826  139.4696  164.2684 C.3     1  UNL1        0.0014
     41 C         143.0622  139.7653  165.1197 C.3     1  UNL1        0.0014
@<TRIPOS>BOND
     1    38    39    1
     2    39    40    1
     3    39    41    1
     4    39    37    1
     5    37    31    1
     6    31    32    1
     7    32    33    1
     8    33    34    1
     9    34    25    1
    10    25    26   ar
    11    26    27   ar
    12    27    28   ar
    13    28    29   ar
    14    29    30   ar
    15    30    24    1
    16    24     1    1
    17     1     2   ar
    18     2     3   ar
    19     3     4   ar
    20     4     5   ar
    21     5     6   ar
    22     6     7    1
    23     7     8   am
    24     8     9    2
    25     8    10   am
    26    10    13    1
    27    13    14   ar
    28    14    15   ar
    29    15    16   ar
    30    16    19    1
    31    19    20    1
    32    20    21    1
    33    20    22    1
    34    20    23    1
    35    16    17   ar
    36    17    18   ar
    37    34    35    1
    38    35    36    1
    39    36    31    1
    40    30    25   ar
    41     6     1   ar
    42    18    13   ar
    43     7    11    1
    44    10    12    1
@<TRIPOS>MOLECULE
*****
 41 44 0 0 0
SMALL
GASTEIGER

@<TRIPOS>ATOM
      1 C         140.6476  139.0408  166.1623 C.ar    1  UNL1        0.2434
      2 N         139.5775  139.5310  167.0921 N.ar    1  UNL1       -0.2088
      3 C         138.1916  138.9634  167.0063 C.ar    1  UNL1        0.1022
      4 C         137.8759  137.9057  165.9907 C.ar    1  UNL1        0.0222
      5 C         138.9461  137.4155  165.0609 C.ar    1  UNL1        0.0211
      6 C         140.3319  137.9830  165.1467 C.ar    1  UNL1        0.1058
      7 N         141.4020  137.4928  164.2169 N.am    1  UNL1       -0.2643
      8 C         141.6769  138.2254  162.9372 C.2     1  UNL1        0.3083
      9 O         140.8817  139.4481  162.5872 O.2     1  UNL1       -0.2521
     10 N         142.7470  137.7352  162.0073 N.am    1  UNL1       -0.2681
     11 H         141.9239  136.6903  164.4466 H       1  UNL1        0.1566
     12 H         143.2689  136.9326  162.2370 H       1  UNL1        0.1564
     13 C         143.0219  138.4677  160.7276 C.ar    1  UNL1        0.0518
     14 C         143.7621  139.7721  160.7542 C.ar    1  UNL1        0.0178
     15 C         144.0371  140.5047  159.4745 C.ar    1  UNL1        0.0385
     16 C         143.5718  139.9329  158.1681 C.ar    1  UNL1        0.1469
     17 C         142.8316  138.6285  158.1415 C.ar    1  UNL1        0.0385
     18 C         142.5567  137.8959  159.4213 C.ar    1  UNL1        0.0178
     19 O         143.8467  140.6654  156.8884 O.3     1  UNL1       -0.4045
     20 C         145.2266  141.1775  156.5988 C.3     1  UNL1        0.5753
     21 F         146.6064  141.6896  156.3093 F       1  UNL1       -0.1328
     22 F         145.6135  139.8315  156.0617 F       1  UNL1       -0.1328
     23 F         144.8398  142.5235  157.1359 F       1  UNL1       -0.1328
     24 O         142.0334  139.6084  166.2481 O.3     1  UNL1       -0.4354
     25 C         142.7824  141.7700  167.4796 C.ar    1  UNL1        0.0122
     26 C         143.2334  142.4616  168.7318 C.ar    1  UNL1       -0.0013
     27 C         143.3864  141.6834  170.0049 C.ar    1  UNL1       -0.0001
     28 C         143.0884  140.2134  170.0258 C.ar    1  UNL1        0.0031
     29 C         142.6375  139.5218  168.7736 C.ar    1  UNL1        0.0372
     30 C         142.4844  140.3001  167.5004 C.ar    1  UNL1        0.1432
     31 N         142.3233  144.1049  163.6602 N.3     1  UNL1       -0.2727
     32 C         143.6909  143.7384  164.1554 C.3     1  UNL1        0.0724
     33 C         143.8439  142.9601  165.4285 C.3     1  UNL1        0.0218
     34 C         142.6294  142.5483  166.2064 C.3     1  UNL1        0.0281
     35 C         141.2618  142.9148  165.7112 C.3     1  UNL1        0.0218
     36 C         141.1087  143.6930  164.4381 C.3     1  UNL1        0.0724
     37 C         142.1703  144.8831  162.3870 C.3     1  UNL1        0.0720
     38 C         140.3132  145.6797  161.7417 C.3     1  UNL1        0.0014
     39 C         141.1349  144.4781  161.3802 C.3     1  UNL1        0.0147
     40 C         141.9566  143.2764  161.0187 C.3     1  UNL1        0.0014
     41 C         140.0994  144.0729  160.3733 C.3     1  UNL1        0.0014
@<TRIPOS>BOND
     1    38    39    1
     2    39    40    1
     3    39    41    1
     4    39    37    1
     5    37    31    1
     6    31    32    1
     7    32    33    1
     8    33    34    1
     9    34    25    1
    10    25    26   ar
    11    26    27   ar
    12    27    28   ar
    13    28    29   ar
    14    29    30   ar
    15    30    24    1
    16    24     1    1
    17     1     2   ar
    18     2     3   ar
    19     3     4   ar
    20     4     5   ar
    21     5     6   ar
    22     6     7    1
    23     7     8   am
    24     8     9    2
    25     8    10   am
    26    10    13    1
    27    13    14   ar
    28    14    15   ar
    29    15    16   ar
    30    16    19    1
    31    19    20    1
    32    20    21    1
    33    20    22    1
    34    20    23    1
    35    16    17   ar
    36    17    18   ar
    37    34    35    1
    38    35    36    1
    39    36    31    1
    40    30    25   ar
    41     6     1   ar
    42    18    13   ar
    43     7    11    1
    44    10    12    1
@<TRIPOS>MOLECULE
*****
 41 44 0 0 0
SMALL
GASTEIGER

@<TRIPOS>ATOM
      1 C         142.5242  140.7044  159.0638 C.ar    1  UNL1        0.2434
      2 N         141.6247  140.5907  157.8689 N.ar    1  UNL1       -0.2088
      3 C         141.3498  139.2466  157.2623 C.ar    1  UNL1        0.1022
      4 C         141.9744  138.0163  157.8506 C.ar    1  UNL1        0.0222
      5 C         142.8739  138.1300  159.0456 C.ar    1  UNL1        0.0211
      6 C         143.1488  139.4741  159.6522 C.ar    1  UNL1        0.1058
      7 N         144.0483  139.5878  160.8472 N.am    1  UNL1       -0.2643
      8 C         143.4585  139.7121  162.2208 C.2     1  UNL1        0.3083
      9 O         141.9692  139.7226  162.3993 O.2     1  UNL1       -0.2521
     10 N         144.3579  139.8258  163.4158 N.am    1  UNL1       -0.2681
     11 H         145.0257  139.5809  160.7300 H       1  UNL1        0.1566
     12 H         145.3354  139.8189  163.2986 H       1  UNL1        0.1564
     13 C         143.7682  139.9501  164.7893 C.ar    1  UNL1        0.0518
     14 C         143.6195  138.7338  165.6546 C.ar    1  UNL1        0.0178
     15 C         143.0297  138.8580  167.0281 C.ar    1  UNL1        0.0385
     16 C         142.5885  140.1985  167.5365 C.ar    1  UNL1        0.1469
     17 C         142.7372  141.4148  166.6713 C.ar    1  UNL1        0.0385
     18 C         143.3270  141.2906  165.2976 C.ar    1  UNL1        0.0178
     19 O         141.9988  140.3228  168.9100 O.3     1  UNL1       -0.4045
     20 C         142.7948  139.9003  170.1091 C.3     1  UNL1        0.5753
     21 F         143.5909  139.4778  171.3082 F       1  UNL1       -0.1328
     22 F         143.6644  141.1133  169.9593 F       1  UNL1       -0.1328
     23 F         141.9253  138.6873  170.2590 F       1  UNL1       -0.1328
     24 O         142.7990  142.0484  159.6704 O.3     1  UNL1       -0.4354
     25 C         140.8519  143.7685  159.6533 C.ar    1  UNL1        0.0122
     26 C         140.2079  144.9959  159.0800 C.ar    1  UNL1       -0.0013
     27 C         140.8671  145.7308  157.9507 C.ar    1  UNL1       -0.0001
     28 C         142.1702  145.2383  157.3946 C.ar    1  UNL1        0.0031
     29 C         142.8142  144.0109  157.9679 C.ar    1  UNL1        0.0372
     30 C         142.1550  143.2759  159.0972 C.ar    1  UNL1        0.1432
     31 N         138.8744  141.5637  163.0413 N.3     1  UNL1       -0.2727
     32 C         140.1072  142.3794  163.2955 C.3     1  UNL1        0.0724
     33 C         140.7664  143.1143  162.1662 C.3     1  UNL1        0.0218
     34 C         140.1927  143.0335  160.7826 C.3     1  UNL1        0.0281
     35 C         138.9599  142.2178  160.5284 C.3     1  UNL1        0.0218
     36 C         138.3008  141.4829  161.6577 C.3     1  UNL1        0.0724
     37 C         138.2153  140.8287  164.1706 C.3     1  UNL1        0.0720
     38 C         139.1458  140.5253  166.0526 C.3     1  UNL1        0.0014
     39 C         138.9207  139.6824  164.8325 C.3     1  UNL1        0.0147
     40 C         138.6956  138.8394  163.6124 C.3     1  UNL1        0.0014
     41 C         139.6262  138.5359  165.4944 C.3     1  UNL1        0.0014
@<TRIPOS>BOND
     1    38    39    1
     2    39    40    1
     3    39    41    1
     4    39    37    1
     5    37    31    1
     6    31    32    1
     7    32    33    1
     8    33    34    1
     9    34    25    1
    10    25    26   ar
    11    26    27   ar
    12    27    28   ar
    13    28    29   ar
    14    29    30   ar
    15    30    24    1
    16    24     1    1
    17     1     2   ar
    18     2     3   ar
    19     3     4   ar
    20     4     5   ar
    21     5     6   ar
    22     6     7    1
    23     7     8   am
    24     8     9    2
    25     8    10   am
    26    10    13    1
    27    13    14   ar
    28    14    15   ar
    29    15    16   ar
    30    16    19    1
    31    19    20    1
    32    20    21    1
    33    20    22    1
    34    20    23    1
    35    16    17   ar
    36    17    18   ar
    37    34    35    1
    38    35    36    1
    39    36    31    1
    40    30    25   ar
    41     6     1   ar
    42    18    13   ar
    43     7    11    1
    44    10    12    1
@<TRIPOS>MOLECULE
*****
 41 44 0 0 0
SMALL
GASTEIGER

@<TRIPOS>ATOM
      1 C         140.1823  141.3673  159.1445 C.ar    1  UNL1        0.2434
      2 N         140.9434  141.8105  157.9304 N.ar    1  UNL1       -0.2088
      3 C         141.1114  143.2732  157.6430 C.ar    1  UNL1        0.1022
      4 C         140.5183  144.2925  158.5699 C.ar    1  UNL1        0.0222
      5 C         139.7572  143.8493  159.7840 C.ar    1  UNL1        0.0211
      6 C         139.5892  142.3867  160.0714 C.ar    1  UNL1        0.1058
      7 N         138.8280  141.9435  161.2856 N.am    1  UNL1       -0.2643
      8 C         139.4877  141.9623  162.6325 C.2     1  UNL1        0.3083
      9 O         140.9086  142.4244  162.7653 O.2     1  UNL1       -0.2521
     10 N         138.7266  141.5191  163.8467 N.am    1  UNL1       -0.2681
     11 H         137.8955  141.6402  161.1984 H       1  UNL1        0.1566
     12 H         137.7940  141.2159  163.7596 H       1  UNL1        0.1564
     13 C         139.3863  141.5379  165.1937 C.ar    1  UNL1        0.0518
     14 C         139.8731  142.8334  165.7724 C.ar    1  UNL1        0.0178
     15 C         140.5328  142.8523  167.1194 C.ar    1  UNL1        0.0385
     16 C         140.7058  141.5756  167.8877 C.ar    1  UNL1        0.1469
     17 C         140.2191  140.2802  167.3091 C.ar    1  UNL1        0.0385
     18 C         139.5593  140.2613  165.9620 C.ar    1  UNL1        0.0178
     19 O         141.3655  141.5945  169.2347 O.3     1  UNL1       -0.4045
     20 C         142.7925  142.0384  169.3648 C.3     1  UNL1        0.5753
     21 F         144.2193  142.4823  169.4950 F       1  UNL1       -0.1328
     22 F         143.2526  140.7203  168.8163 F       1  UNL1       -0.1328
     23 F         142.3323  143.3564  169.9134 F       1  UNL1       -0.1328
     24 O         140.0143  139.9047  159.4319 O.3     1  UNL1       -0.4354
     25 C         141.9852  138.3056  158.8766 C.ar    1  UNL1        0.0122
     26 C         142.6169  137.2867  157.9750 C.ar    1  UNL1       -0.0013
     27 C         141.9094  136.8481  156.7272 C.ar    1  UNL1       -0.0001
     28 C         140.5703  137.4283  156.3809 C.ar    1  UNL1        0.0031
     29 C         139.9386  138.4471  157.2825 C.ar    1  UNL1        0.0372
     30 C         140.6461  138.8858  158.5303 C.ar    1  UNL1        0.1432
     31 N         144.1077  139.6216  162.6200 N.3     1  UNL1       -0.2727
     32 C         143.3346  138.3363  162.6086 C.3     1  UNL1        0.0724
     33 C         142.6271  137.8976  161.3608 C.3     1  UNL1        0.0218
     34 C         142.6927  138.7443  160.1244 C.3     1  UNL1        0.0281
     35 C         143.4658  140.0296  160.1358 C.3     1  UNL1        0.0218
     36 C         144.1733  140.4682  161.3836 C.3     1  UNL1        0.0724
     37 C         144.8152  140.0602  163.8678 C.3     1  UNL1        0.0720
     38 C         145.5376  142.0487  164.0227 C.3     1  UNL1        0.0014
     39 C         144.3683  141.2980  164.5876 C.3     1  UNL1        0.0147
     40 C         143.1990  140.5474  165.1526 C.3     1  UNL1        0.0014
     41 C         143.9214  142.5359  165.3075 C.3     1  UNL1        0.0014
@<TRIPOS>BOND
     1    38    39    1
     2    39    40    1
     3    39    41    1
     4    39    37    1
     5    37    31    1
     6    31    32    1
     7    32    33    1
     8    33    34    1
     9    34    25    1
    10    25    26   ar
    11    26    27   ar
    12    27    28   ar
    13    28    29   ar
    14    29    30   ar
    15    30    24    1
    16    24     1    1
    17     1     2   ar
    18     2     3   ar
    19     3     4   ar
    20     4     5   ar
    21     5     6   ar
    22     6     7    1
    23     7     8   am
    24     8     9    2
    25     8    10   am
    26    10    13    1
    27    13    14   ar
    28    14    15   ar
    29    15    16   ar
    30    16    19    1
    31    19    20    1
    32    20    21    1
    33    20    22    1
    34    20    23    1
    35    16    17   ar
    36    17    18   ar
    37    34    35    1
    38    35    36    1
    39    36    31    1
    40    30    25   ar
    41     6     1   ar
    42    18    13   ar
    43     7    11    1
    44    10    12    1
@<TRIPOS>MOLECULE
*****
 41 44 0 0 0
SMALL
GASTEIGER

@<TRIPOS>ATOM
      1 C         139.6957  141.2738  159.0340 C.ar    1  UNL1        0.2434
      2 N         140.4733  140.9157  157.8023 N.ar    1  UNL1       -0.2088
      3 C         140.7078  139.4752  157.4557 C.ar    1  UNL1        0.1022
      4 C         140.1647  138.3929  158.3408 C.ar    1  UNL1        0.0222
      5 C         139.3871  138.7509  159.5725 C.ar    1  UNL1        0.0211
      6 C         139.1526  140.1913  159.9192 C.ar    1  UNL1        0.1058
      7 N         138.3751  140.5494  161.1509 N.am    1  UNL1       -0.2643
      8 C         139.0887  140.7615  162.4531 C.2     1  UNL1        0.3083
      9 O         140.5799  140.6155  162.5235 O.2     1  UNL1       -0.2521
     10 N         138.3111  141.1195  163.6848 N.am    1  UNL1       -0.2681
     11 H         137.3963  140.6452  161.1047 H       1  UNL1        0.1566
     12 H         137.3324  141.2153  163.6386 H       1  UNL1        0.1564
     13 C         139.0248  141.3316  164.9870 C.ar    1  UNL1        0.0518
     14 C         139.6583  142.6576  165.2878 C.ar    1  UNL1        0.0178
     15 C         140.3720  142.8696  166.5900 C.ar    1  UNL1        0.0385
     16 C         140.4520  141.7558  167.5914 C.ar    1  UNL1        0.1469
     17 C         139.8185  140.4298  167.2907 C.ar    1  UNL1        0.0385
     18 C         139.1049  140.2177  165.9885 C.ar    1  UNL1        0.0178
     19 O         141.1657  141.9678  168.8936 O.3     1  UNL1       -0.4045
     20 C         142.6339  142.2749  168.9029 C.3     1  UNL1        0.5753
     21 F         144.1021  142.5819  168.9122 F       1  UNL1       -0.1328
     22 F         142.3894  143.4157  169.8456 F       1  UNL1       -0.1328
     23 F         142.8784  141.1341  167.9603 F       1  UNL1       -0.1328
     24 O         139.4613  142.7142  159.3806 O.3     1  UNL1       -0.4354
     25 C         141.3494  144.4464  158.9508 C.ar    1  UNL1        0.0122
     26 C         141.9511  145.5289  158.1047 C.ar    1  UNL1       -0.0013
     27 C         141.2665  145.9619  156.8423 C.ar    1  UNL1       -0.0001
     28 C         139.9801  145.3124  156.4259 C.ar    1  UNL1        0.0031
     29 C         139.3784  144.2298  157.2721 C.ar    1  UNL1        0.0372
     30 C         140.0631  143.7968  158.5345 C.ar    1  UNL1        0.1432
     31 N         143.4033  143.1473  162.7382 N.3     1  UNL1       -0.2727
     32 C         143.8148  142.5578  161.4217 C.3     1  UNL1        0.0724
     33 C         143.1302  142.9909  160.1593 C.3     1  UNL1        0.0218
     34 C         142.0340  144.0133  160.2133 C.3     1  UNL1        0.0281
     35 C         141.6225  144.6028  161.5298 C.3     1  UNL1        0.0218
     36 C         142.3072  144.1698  162.7922 C.3     1  UNL1        0.0724
     37 C         144.0879  142.7143  164.0006 C.3     1  UNL1        0.0720
     38 C         145.8773  141.6030  163.7496 C.3     1  UNL1        0.0014
     39 C         144.4797  141.2784  164.1868 C.3     1  UNL1        0.0147
     40 C         143.0820  140.9538  164.6241 C.3     1  UNL1        0.0014
     41 C         144.8714  139.8424  164.3730 C.3     1  UNL1        0.0014
@<TRIPOS>BOND
     1    38    39    1
     2    39    40    1
     3    39    41    1
     4    39    37    1
     5    37    31    1
     6    31    32    1
     7    32    33    1
     8    33    34    1
     9    34    25    1
    10    25    26   ar
    11    26    27   ar
    12    27    28   ar
    13    28    29   ar
    14    29    30   ar
    15    30    24    1
    16    24     1    1
    17     1     2   ar
    18     2     3   ar
    19     3     4   ar
    20     4     5   ar
    21     5     6   ar
    22     6     7    1
    23     7     8   am
    24     8     9    2
    25     8    10   am
    26    10    13    1
    27    13    14   ar
    28    14    15   ar
    29    15    16   ar
    30    16    19    1
    31    19    20    1
    32    20    21    1
    33    20    22    1
    34    20    23    1
    35    16    17   ar
    36    17    18   ar
    37    34    35    1
    38    35    36    1
    39    36    31    1
    40    30    25   ar
    41     6     1   ar
    42    18    13   ar
    43     7    11    1
    44    10    12    1
@<TRIPOS>MOLECULE
*****
 41 44 0 0 0
SMALL
GASTEIGER

@<TRIPOS>ATOM
      1 C         142.2388  142.3854  159.4579 C.ar    1  UNL1        0.2434
      2 N         141.4080  142.6115  158.2296 N.ar    1  UNL1       -0.2088
      3 C         140.4835  143.7905  158.1561 C.ar    1  UNL1        0.1022
      4 C         140.3899  144.7434  159.3107 C.ar    1  UNL1        0.0222
      5 C         141.2207  144.5173  160.5390 C.ar    1  UNL1        0.0211
      6 C         142.1452  143.3384  160.6126 C.ar    1  UNL1        0.1058
      7 N         142.9760  143.1123  161.8408 N.am    1  UNL1       -0.2643
      8 C         142.3624  142.4819  163.0557 C.2     1  UNL1        0.3083
      9 O         140.9180  142.0777  163.0425 O.2     1  UNL1       -0.2521
     10 N         143.1933  142.2558  164.2840 N.am    1  UNL1       -0.2681
     11 H         143.9240  143.3776  161.8495 H       1  UNL1        0.1566
     12 H         144.1413  142.5212  164.2927 H       1  UNL1        0.1564
     13 C         142.5797  141.6255  165.4989 C.ar    1  UNL1        0.0518
     14 C         141.8526  142.4753  166.4986 C.ar    1  UNL1        0.0178
     15 C         141.2390  141.8449  167.7136 C.ar    1  UNL1        0.0385
     16 C         141.3526  140.3648  167.9289 C.ar    1  UNL1        0.1469
     17 C         142.0796  139.5151  166.9294 C.ar    1  UNL1        0.0385
     18 C         142.6933  140.1454  165.7143 C.ar    1  UNL1        0.0178
     19 O         140.7390  139.7345  169.1439 O.3     1  UNL1       -0.4045
     20 C         139.4436  140.2597  169.6882 C.3     1  UNL1        0.5753
     21 F         138.1483  140.7848  170.2324 F       1  UNL1       -0.1328
     22 F         138.7187  139.7059  168.4974 F       1  UNL1       -0.1328
     23 F         140.1684  140.8135  170.8789 F       1  UNL1       -0.1328
     24 O         143.1633  141.2065  159.5315 O.3     1  UNL1       -0.4354
     25 C         142.4448  138.9986  158.3657 C.ar    1  UNL1        0.0122
     26 C         142.5428  138.0490  157.2087 C.ar    1  UNL1       -0.0013
     27 C         143.4573  138.3576  156.0605 C.ar    1  UNL1       -0.0001
     28 C         144.2737  139.6159  156.0692 C.ar    1  UNL1        0.0031
     29 C         144.1757  140.5655  157.2262 C.ar    1  UNL1        0.0372
     30 C         143.2612  140.2568  158.3744 C.ar    1  UNL1        0.1432
     31 N         139.7013  138.0726  161.8104 N.3     1  UNL1       -0.2727
     32 C         139.1302  138.4966  160.4898 C.3     1  UNL1        0.0724
     33 C         140.0447  138.8053  159.3416 C.3     1  UNL1        0.0218
     34 C         141.5303  138.6899  159.5139 C.3     1  UNL1        0.0281
     35 C         142.1013  138.2659  160.8345 C.3     1  UNL1        0.0218
     36 C         141.1869  137.9572  161.9828 C.3     1  UNL1        0.0724
     37 C         138.7868  137.7639  162.9586 C.3     1  UNL1        0.0720
     38 C         138.1968  139.7804  163.2512 C.3     1  UNL1        0.0014
     39 C         138.7232  138.6902  164.1368 C.3     1  UNL1        0.0147
     40 C         139.2497  137.6000  165.0223 C.3     1  UNL1        0.0014
     41 C         138.6597  139.6164  165.3150 C.3     1  UNL1        0.0014
@<TRIPOS>BOND
     1    38    39    1
     2    39    40    1
     3    39    41    1
     4    39    37    1
     5    37    31    1
     6    31    32    1
     7    32    33    1
     8    33    34    1
     9    34    25    1
    10    25    26   ar
    11    26    27   ar
    12    27    28   ar
    13    28    29   ar
    14    29    30   ar
    15    30    24    1
    16    24     1    1
    17     1     2   ar
    18     2     3   ar
    19     3     4   ar
    20     4     5   ar
    21     5     6   ar
    22     6     7    1
    23     7     8   am
    24     8     9    2
    25     8    10   am
    26    10    13    1
    27    13    14   ar
    28    14    15   ar
    29    15    16   ar
    30    16    19    1
    31    19    20    1
    32    20    21    1
    33    20    22    1
    34    20    23    1
    35    16    17   ar
    36    17    18   ar
    37    34    35    1
    38    35    36    1
    39    36    31    1
    40    30    25   ar
    41     6     1   ar
    42    18    13   ar
    43     7    11    1
    44    10    12    1
@<TRIPOS>MOLECULE
*****
 41 44 0 0 0
SMALL
GASTEIGER

@<TRIPOS>ATOM
      1 C         141.3727  143.1924  165.5610 C.ar    1  UNL1        0.2434
      2 N         140.2215  143.2711  166.5195 N.ar    1  UNL1       -0.2088
      3 C         139.0185  144.1005  166.1803 C.ar    1  UNL1        0.1022
      4 C         138.9667  144.8512  164.8827 C.ar    1  UNL1        0.0222
      5 C         140.1179  144.7725  163.9243 C.ar    1  UNL1        0.0211
      6 C         141.3208  143.9431  164.2634 C.ar    1  UNL1        0.1058
      7 N         142.4720  143.8644  163.3049 N.am    1  UNL1       -0.2643
      8 C         142.4572  142.8540  162.1964 C.2     1  UNL1        0.3083
      9 O         141.2913  141.9223  162.0464 O.2     1  UNL1       -0.2521
     10 N         143.6083  142.7753  161.2379 N.am    1  UNL1       -0.2681
     11 H         143.2372  144.4759  163.4034 H       1  UNL1        0.1566
     12 H         144.3736  143.3868  161.3364 H       1  UNL1        0.1564
     13 C         143.5936  141.7649  160.1294 C.ar    1  UNL1        0.0518
     14 C         143.8039  140.3117  160.4363 C.ar    1  UNL1        0.0178
     15 C         143.7891  139.3014  159.3277 C.ar    1  UNL1        0.0385
     16 C         143.5640  139.7441  157.9123 C.ar    1  UNL1        0.1469
     17 C         143.3537  141.1972  157.6055 C.ar    1  UNL1        0.0385
     18 C         143.3685  142.2076  158.7140 C.ar    1  UNL1        0.0178
     19 O         143.5493  138.7337  156.8038 O.3     1  UNL1       -0.4045
     20 C         142.6044  137.5700  156.8622 C.3     1  UNL1        0.5753
     21 F         141.6597  136.4064  156.9205 F       1  UNL1       -0.1328
     22 F         141.4824  138.4990  157.2199 F       1  UNL1       -0.1328
     23 F         143.7265  136.6411  156.5045 F       1  UNL1       -0.1328
     24 O         142.5756  142.3631  165.9002 O.3     1  UNL1       -0.4354
     25 C         142.1262  140.2775  167.3829 C.ar    1  UNL1        0.0122
     26 C         142.2098  139.5855  168.7110 C.ar    1  UNL1       -0.0013
     27 C         142.8266  140.2869  169.8847 C.ar    1  UNL1       -0.0001
     28 C         143.3597  141.6804  169.7302 C.ar    1  UNL1        0.0031
     29 C         143.2760  142.3725  168.4021 C.ar    1  UNL1        0.0372
     30 C         142.6593  141.6710  167.2284 C.ar    1  UNL1        0.1432
     31 N         140.2759  138.1730  163.8618 N.3     1  UNL1       -0.2727
     32 C         141.7181  137.9400  164.2017 C.3     1  UNL1        0.0724
     33 C         142.3349  138.6415  165.3754 C.3     1  UNL1        0.0218
     34 C         141.5094  139.5760  166.2092 C.3     1  UNL1        0.0281
     35 C         140.0672  139.8090  165.8693 C.3     1  UNL1        0.0218
     36 C         139.4504  139.1075  164.6956 C.3     1  UNL1        0.0724
     37 C         139.6591  137.4716  162.6881 C.3     1  UNL1        0.0720
     38 C         137.8591  138.1829  161.8198 C.3     1  UNL1        0.0014
     39 C         139.3116  138.2443  161.4504 C.3     1  UNL1        0.0147
     40 C         140.7641  138.3057  161.0809 C.3     1  UNL1        0.0014
     41 C         138.9641  139.0171  160.2126 C.3     1  UNL1        0.0014
@<TRIPOS>BOND
     1    38    39    1
     2    39    40    1
     3    39    41    1
     4    39    37    1
     5    37    31    1
     6    31    32    1
     7    32    33    1
     8    33    34    1
     9    34    25    1
    10    25    26   ar
    11    26    27   ar
    12    27    28   ar
    13    28    29   ar
    14    29    30   ar
    15    30    24    1
    16    24     1    1
    17     1     2   ar
    18     2     3   ar
    19     3     4   ar
    20     4     5   ar
    21     5     6   ar
    22     6     7    1
    23     7     8   am
    24     8     9    2
    25     8    10   am
    26    10    13    1
    27    13    14   ar
    28    14    15   ar
    29    15    16   ar
    30    16    19    1
    31    19    20    1
    32    20    21    1
    33    20    22    1
    34    20    23    1
    35    16    17   ar
    36    17    18   ar
    37    34    35    1
    38    35    36    1
    39    36    31    1
    40    30    25   ar
    41     6     1   ar
    42    18    13   ar
    43     7    11    1
    44    10    12    1
@<TRIPOS>MOLECULE
*****
 41 44 0 0 0
SMALL
GASTEIGER

@<TRIPOS>ATOM
      1 C         140.4502  139.4019  166.3046 C.ar    1  UNL1        0.2434
      2 N         139.1001  139.3402  166.9552 N.ar    1  UNL1       -0.2088
      3 C         138.0844  138.3428  166.4821 C.ar    1  UNL1        0.1022
      4 C         138.4189  137.4072  165.3585 C.ar    1  UNL1        0.0222
      5 C         139.7690  137.4689  164.7078 C.ar    1  UNL1        0.0211
      6 C         140.7846  138.4662  165.1808 C.ar    1  UNL1        0.1058
      7 N         142.1348  138.5279  164.5301 N.am    1  UNL1       -0.2643
      8 C         142.3320  139.3452  163.2880 C.2     1  UNL1        0.3083
      9 O         141.1792  140.1008  162.6965 O.2     1  UNL1       -0.2521
     10 N         143.6822  139.4069  162.6373 N.am    1  UNL1       -0.2681
     11 H         142.8914  138.0320  164.9184 H       1  UNL1        0.1566
     12 H         144.4388  138.9109  163.0256 H       1  UNL1        0.1564
     13 C         143.8794  140.2242  161.3951 C.ar    1  UNL1        0.0518
     14 C         144.2465  141.6747  161.5021 C.ar    1  UNL1        0.0178
     15 C         144.4438  142.4920  160.2599 C.ar    1  UNL1        0.0385
     16 C         144.2740  141.8589  158.9107 C.ar    1  UNL1        0.1469
     17 C         143.9069  140.4085  158.8037 C.ar    1  UNL1        0.0385
     18 C         143.7096  139.5911  160.0459 C.ar    1  UNL1        0.0178
     19 O         144.4713  142.6762  157.6686 O.3     1  UNL1       -0.4045
     20 C         143.2827  143.1472  156.8840 C.3     1  UNL1        0.5753
     21 F         142.0941  143.6181  156.0995 F       1  UNL1       -0.1328
     22 F         143.1077  144.2926  157.8366 F       1  UNL1       -0.1328
     23 F         143.4576  142.0018  155.9314 F       1  UNL1       -0.1328
     24 O         141.4659  140.3992  166.7776 O.3     1  UNL1       -0.4354
     25 C         140.6343  142.6971  167.6597 C.ar    1  UNL1        0.0122
     26 C         140.3123  143.6092  168.8062 C.ar    1  UNL1       -0.0013
     27 C         140.5001  143.1355  170.2170 C.ar    1  UNL1       -0.0001
     28 C         141.0097  141.7498  170.4814 C.ar    1  UNL1        0.0031
     29 C         141.3316  140.8377  169.3349 C.ar    1  UNL1        0.0372
     30 C         141.1439  141.3114  167.9241 C.ar    1  UNL1        0.1432
     31 N         140.0710  144.1181  163.4273 N.3     1  UNL1       -0.2727
     32 C         141.3645  143.4793  163.8381 C.3     1  UNL1        0.0724
     33 C         141.5522  143.0056  165.2489 C.3     1  UNL1        0.0218
     34 C         140.4465  143.1708  166.2489 C.3     1  UNL1        0.0281
     35 C         139.1531  143.8096  165.8381 C.3     1  UNL1        0.0218
     36 C         138.9653  144.2833  164.4273 C.3     1  UNL1        0.0724
     37 C         139.8833  144.5918  162.0165 C.3     1  UNL1        0.0720
     38 C         141.4443  144.6704  160.5823 C.3     1  UNL1        0.0014
     39 C         140.3156  143.7256  160.8707 C.3     1  UNL1        0.0147
     40 C         139.1869  142.7808  161.1592 C.3     1  UNL1        0.0014
     41 C         140.7479  142.8593  159.7249 C.3     1  UNL1        0.0014
@<TRIPOS>BOND
     1    38    39    1
     2    39    40    1
     3    39    41    1
     4    39    37    1
     5    37    31    1
     6    31    32    1
     7    32    33    1
     8    33    34    1
     9    34    25    1
    10    25    26   ar
    11    26    27   ar
    12    27    28   ar
    13    28    29   ar
    14    29    30   ar
    15    30    24    1
    16    24     1    1
    17     1     2   ar
    18     2     3   ar
    19     3     4   ar
    20     4     5   ar
    21     5     6   ar
    22     6     7    1
    23     7     8   am
    24     8     9    2
    25     8    10   am
    26    10    13    1
    27    13    14   ar
    28    14    15   ar
    29    15    16   ar
    30    16    19    1
    31    19    20    1
    32    20    21    1
    33    20    22    1
    34    20    23    1
    35    16    17   ar
    36    17    18   ar
    37    34    35    1
    38    35    36    1
    39    36    31    1
    40    30    25   ar
    41     6     1   ar
    42    18    13   ar
    43     7    11    1
    44    10    12    1
@<TRIPOS>MOLECULE
*****
 41 44 0 0 0
SMALL
GASTEIGER

@<TRIPOS>ATOM
      1 C         141.0540  140.6200  158.1119 C.ar    1  UNL1        0.2434
      2 N         142.2503  140.9883  157.2854 N.ar    1  UNL1       -0.2088
      3 C         143.1600  139.9160  156.7631 C.ar    1  UNL1        0.1022
      4 C         142.8733  138.4755  157.0672 C.ar    1  UNL1        0.0222
      5 C         141.6769  138.1071  157.8936 C.ar    1  UNL1        0.0211
      6 C         140.7673  139.1793  158.4160 C.ar    1  UNL1        0.1058
      7 N         139.5709  138.8110  159.2425 N.am    1  UNL1       -0.2643
      8 C         139.6247  138.9341  160.7364 C.2     1  UNL1        0.3083
      9 O         140.8748  139.4256  161.4039 O.2     1  UNL1       -0.2521
     10 N         138.4284  138.5657  161.5629 N.am    1  UNL1       -0.2681
     11 H         138.7504  138.4884  158.8043 H       1  UNL1        0.1566
     12 H         137.6078  138.2431  161.1247 H       1  UNL1        0.1564
     13 C         138.4821  138.6888  163.0568 C.ar    1  UNL1        0.0518
     14 C         138.1510  139.9959  163.7141 C.ar    1  UNL1        0.0178
     15 C         138.2047  140.1191  165.2080 C.ar    1  UNL1        0.0385
     16 C         138.5897  138.9351  166.0448 C.ar    1  UNL1        0.1469
     17 C         138.9208  137.6281  165.3876 C.ar    1  UNL1        0.0385
     18 C         138.8670  137.5049  163.8936 C.ar    1  UNL1        0.0178
     19 O         138.6434  139.0583  167.5387 O.3     1  UNL1       -0.4045
     20 C         139.6391  139.9788  168.1800 C.3     1  UNL1        0.5753
     21 F         140.6347  140.8993  168.8214 F       1  UNL1       -0.1328
     22 F         140.6535  139.6065  167.1397 F       1  UNL1       -0.1328
     23 F         138.6247  140.3512  169.2204 F       1  UNL1       -0.1328
     24 O         140.1443  141.6922  158.6342 O.3     1  UNL1       -0.4354
     25 C         141.3070  143.9835  159.0189 C.ar    1  UNL1        0.0122
     26 C         141.5254  145.4127  158.6194 C.ar    1  UNL1       -0.0013
     27 C         140.7995  145.9798  157.4355 C.ar    1  UNL1       -0.0001
     28 C         139.8553  145.1177  156.6512 C.ar    1  UNL1        0.0031
     29 C         139.6369  143.6885  157.0508 C.ar    1  UNL1        0.0372
     30 C         140.3628  143.1214  158.2347 C.ar    1  UNL1        0.1432
     31 N         143.4846  142.2823  162.5706 N.3     1  UNL1       -0.2727
     32 C         144.2115  142.4930  161.2755 C.3     1  UNL1        0.0724
     33 C         143.4856  143.0601  160.0917 C.3     1  UNL1        0.0218
     34 C         142.0329  143.4164  160.2028 C.3     1  UNL1        0.0281
     35 C         141.3060  143.2057  161.4978 C.3     1  UNL1        0.0218
     36 C         142.0318  142.6387  162.6817 C.3     1  UNL1        0.0724
     37 C         144.2105  141.7152  163.7544 C.3     1  UNL1        0.0720
     38 C         143.1274  140.6623  165.2438 C.3     1  UNL1        0.0014
     39 C         143.7392  142.0282  165.1436 C.3     1  UNL1        0.0147
     40 C         144.3509  143.3941  165.0434 C.3     1  UNL1        0.0014
     41 C         143.2678  142.3413  166.5329 C.3     1  UNL1        0.0014
@<TRIPOS>BOND
     1    38    39    1
     2    39    40    1
     3    39    41    1
     4    39    37    1
     5    37    31    1
     6    31    32    1
     7    32    33    1
     8    33    34    1
     9    34    25    1
    10    25    26   ar
    11    26    27   ar
    12    27    28   ar
    13    28    29   ar
    14    29    30   ar
    15    30    24    1
    16    24     1    1
    17     1     2   ar
    18     2     3   ar
    19     3     4   ar
    20     4     5   ar
    21     5     6   ar
    22     6     7    1
    23     7     8   am
    24     8     9    2
    25     8    10   am
    26    10    13    1
    27    13    14   ar
    28    14    15   ar
    29    15    16   ar
    30    16    19    1
    31    19    20    1
    32    20    21    1
    33    20    22    1
    34    20    23    1
    35    16    17   ar
    36    17    18   ar
    37    34    35    1
    38    35    36    1
    39    36    31    1
    40    30    25   ar
    41     6     1   ar
    42    18    13   ar
    43     7    11    1
    44    10    12    1
