@<TRIPOS>MOLECULE
*****
 30 33 0 0 0
SMALL
GASTEIGER

@<TRIPOS>ATOM
      1 C         139.7486  140.2847  167.7819 C.ar    1  UNL1        0.1427
      2 C         140.4978  140.9641  166.6742 C.ar    1  UNL1        0.0371
      3 C         141.4644  142.0671  166.9889 C.ar    1  UNL1        0.0045
      4 C         141.6819  142.4906  168.4113 C.ar    1  UNL1        0.0004
      5 C         140.9326  141.8112  169.5190 C.ar    1  UNL1        0.0076
      6 C         139.9660  140.7082  169.2043 C.ar    1  UNL1        0.0870
      7 C         142.2137  142.7465  165.8811 C.ar    1  UNL1        0.0193
      8 C         143.7092  142.8477  165.9391 C.ar    1  UNL1        0.0988
      9 N         144.4584  143.5271  164.8314 N.ar    1  UNL1       -0.2423
     10 C         143.7122  144.1053  163.6657 C.ar    1  UNL1        0.0989
     11 C         142.2167  144.0042  163.6077 C.ar    1  UNL1        0.0222
     12 C         141.4675  143.3247  164.7155 C.ar    1  UNL1        0.0032
     13 C         141.4705  144.5824  162.4421 C.ar    1  UNL1        0.0411
     14 C         140.2902  145.5048  162.5206 C.ar    1  UNL1        0.1217
     15 N         139.8638  145.8322  161.1203 N.ar    1  UNL1       -0.1676
     16 N         140.7805  145.1121  160.1763 N.ar    1  UNL1       -0.2463
     17 C         141.7735  144.3397  160.9932 C.ar    1  UNL1        0.0968
     18 C         140.7157  145.1567  158.6783 C.3     1  UNL1        0.1641
     19 C         141.4399  145.9173  157.6074 C.3     1  UNL1        0.1690
     20 O         140.6239  145.2196  156.5599 O.3     1  UNL1       -0.3495
     21 C         139.8996  144.4589  157.6308 C.3     1  UNL1        0.1690
     22 C         139.2168  140.0288  170.3120 C.2     1  UNL1        0.2457
     23 N         139.9671  139.3823  171.4386 N.am    1  UNL1       -0.3252
     24 O         137.7173  139.9958  170.2932 O.2     1  UNL1       -0.2703
     25 H         140.9513  139.4039  171.4509 H       1  UNL1        0.1453
     26 H         139.4754  138.9364  172.1656 H       1  UNL1        0.1453
     27 O         138.7819  139.1817  167.4671 O.3     1  UNL1       -0.4790
     28 C         138.0017  139.8947  165.0938 C.3     1  UNL1        0.0472
     29 C         138.4803  138.8334  166.0397 C.3     1  UNL1        0.1661
     30 C         138.6572  137.4238  165.5580 C.3     1  UNL1        0.0472
@<TRIPOS>BOND
     1    28    29    1
     2    29    30    1
     3    29    27    1
     4    27     1    1
     5     1     2   ar
     6     2     3   ar
     7     3     7    1
     8     7     8   ar
     9     8     9   ar
    10     9    10   ar
    11    10    11   ar
    12    11    13    1
    13    13    14   ar
    14    14    15   ar
    15    15    16   ar
    16    16    18    1
    17    18    19    1
    18    19    20    1
    19    20    21    1
    20    16    17   ar
    21    11    12   ar
    22     3     4   ar
    23     4     5   ar
    24     5     6   ar
    25     6    22    1
    26    22    23   am
    27    22    24    2
    28     6     1   ar
    29    12     7   ar
    30    17    13   ar
    31    21    18    1
    32    23    25    1
    33    23    26    1
@<TRIPOS>MOLECULE
*****
 30 33 0 0 0
SMALL
GASTEIGER

@<TRIPOS>ATOM
      1 C         140.7585  141.0580  167.6614 C.ar    1  UNL1        0.1427
      2 C         140.3829  141.2902  166.2279 C.ar    1  UNL1        0.0371
      3 C         139.2309  140.5431  165.6239 C.ar    1  UNL1        0.0045
      4 C         138.4546  139.5637  166.4534 C.ar    1  UNL1        0.0004
      5 C         138.8303  139.3314  167.8869 C.ar    1  UNL1        0.0076
      6 C         139.9822  140.0786  168.4909 C.ar    1  UNL1        0.0870
      7 C         138.8553  140.7753  164.1904 C.ar    1  UNL1        0.0193
      8 C         138.0316  139.7588  163.4567 C.ar    1  UNL1        0.0988
      9 N         137.6560  139.9910  162.0232 N.ar    1  UNL1       -0.2423
     10 C         138.1041  141.2398  161.3233 C.ar    1  UNL1        0.0989
     11 C         138.9278  142.2564  162.0569 C.ar    1  UNL1        0.0222
     12 C         139.3034  142.0241  163.4905 C.ar    1  UNL1        0.0032
     13 C         139.3758  143.5051  161.3571 C.ar    1  UNL1        0.0411
     14 C         139.4580  144.8746  161.9636 C.ar    1  UNL1        0.1217
     15 N         139.9533  145.8195  160.9092 N.ar    1  UNL1       -0.1676
     16 N         140.1773  145.0340  159.6510 N.ar    1  UNL1       -0.2463
     17 C         139.8203  143.6037  159.9279 C.ar    1  UNL1        0.0968
     18 C         140.6714  145.5826  158.3453 C.3     1  UNL1        0.1641
     19 C         142.0000  145.6334  157.6509 C.3     1  UNL1        0.1690
     20 O         141.3702  146.3584  156.4987 O.3     1  UNL1       -0.3495
     21 C         140.0415  146.3076  157.1931 C.3     1  UNL1        0.1690
     22 C         140.3578  139.8463  169.9244 C.2     1  UNL1        0.2457
     23 N         141.7666  139.4733  170.2796 N.am    1  UNL1       -0.3252
     24 O         139.3247  139.9870  171.0027 O.2     1  UNL1       -0.2703
     25 H         142.4447  139.3810  169.5719 H       1  UNL1        0.1453
     26 H         142.0132  139.3209  171.2205 H       1  UNL1        0.1453
     27 O         141.9105  141.8051  168.2654 O.3     1  UNL1       -0.4790
     28 C         140.3703  143.5857  169.3641 C.3     1  UNL1        0.0472
     29 C         141.6635  142.8261  169.3361 C.3     1  UNL1        0.1661
     30 C         142.7097  143.0877  170.3788 C.3     1  UNL1        0.0472
@<TRIPOS>BOND
     1    28    29    1
     2    29    30    1
     3    29    27    1
     4    27     1    1
     5     1     2   ar
     6     2     3   ar
     7     3     7    1
     8     7     8   ar
     9     8     9   ar
    10     9    10   ar
    11    10    11   ar
    12    11    13    1
    13    13    14   ar
    14    14    15   ar
    15    15    16   ar
    16    16    18    1
    17    18    19    1
    18    19    20    1
    19    20    21    1
    20    16    17   ar
    21    11    12   ar
    22     3     4   ar
    23     4     5   ar
    24     5     6   ar
    25     6    22    1
    26    22    23   am
    27    22    24    2
    28     6     1   ar
    29    12     7   ar
    30    17    13   ar
    31    21    18    1
    32    23    25    1
    33    23    26    1
@<TRIPOS>MOLECULE
*****
 30 33 0 0 0
SMALL
GASTEIGER

@<TRIPOS>ATOM
      1 C         141.4742  143.6293  161.1705 C.ar    1  UNL1        0.1427
      2 C         141.2045  142.4465  162.0527 C.ar    1  UNL1        0.0371
      3 C         140.0184  141.5675  161.7868 C.ar    1  UNL1        0.0045
      4 C         139.1021  141.8713  160.6388 C.ar    1  UNL1        0.0004
      5 C         139.3718  143.0540  159.7566 C.ar    1  UNL1        0.0076
      6 C         140.5579  143.9330  160.0224 C.ar    1  UNL1        0.0870
      7 C         139.7487  140.3847  162.6691 C.ar    1  UNL1        0.0193
      8 C         139.6649  139.0098  162.0753 C.ar    1  UNL1        0.0988
      9 N         139.3952  137.8270  162.9575 N.ar    1  UNL1       -0.2423
     10 C         139.2093  138.0192  164.4335 C.ar    1  UNL1        0.0989
     11 C         139.2931  139.3941  165.0273 C.ar    1  UNL1        0.0222
     12 C         139.5628  140.5769  164.1450 C.ar    1  UNL1        0.0032
     13 C         139.1072  139.5862  166.5032 C.ar    1  UNL1        0.0411
     14 C         138.0690  138.9185  167.3555 C.ar    1  UNL1        0.1217
     15 N         138.2470  139.3995  168.7651 N.ar    1  UNL1       -0.1676
     16 N         139.3954  140.3644  168.7840 N.ar    1  UNL1       -0.2463
     17 C         139.9270  140.4798  167.3861 C.ar    1  UNL1        0.0968
     18 C         139.9199  141.0871  169.9893 C.3     1  UNL1        0.1641
     19 C         140.8321  140.7313  171.1257 C.3     1  UNL1        0.1690
     20 O         140.6618  142.1091  171.6937 O.3     1  UNL1       -0.3495
     21 C         139.7496  142.4649  170.5573 C.3     1  UNL1        0.1690
     22 C         140.8276  145.1158  159.1402 C.2     1  UNL1        0.2457
     23 N         142.2094  145.3546  158.6076 N.am    1  UNL1       -0.3252
     24 O         139.7155  146.0597  158.7905 O.2     1  UNL1       -0.2703
     25 H         142.9392  144.7351  158.8371 H       1  UNL1        0.1453
     26 H         142.3864  146.1309  158.0286 H       1  UNL1        0.1453
     27 O         142.6602  144.5082  161.4363 O.3     1  UNL1       -0.4790
     28 C         144.6453  143.2568  162.5513 C.3     1  UNL1        0.0472
     29 C         143.5284  144.2547  162.6329 C.3     1  UNL1        0.1661
     30 C         143.2798  144.9992  163.9112 C.3     1  UNL1        0.0472
@<TRIPOS>BOND
     1    28    29    1
     2    29    30    1
     3    29    27    1
     4    27     1    1
     5     1     2   ar
     6     2     3   ar
     7     3     7    1
     8     7     8   ar
     9     8     9   ar
    10     9    10   ar
    11    10    11   ar
    12    11    13    1
    13    13    14   ar
    14    14    15   ar
    15    15    16   ar
    16    16    18    1
    17    18    19    1
    18    19    20    1
    19    20    21    1
    20    16    17   ar
    21    11    12   ar
    22     3     4   ar
    23     4     5   ar
    24     5     6   ar
    25     6    22    1
    26    22    23   am
    27    22    24    2
    28     6     1   ar
    29    12     7   ar
    30    17    13   ar
    31    21    18    1
    32    23    25    1
    33    23    26    1
@<TRIPOS>MOLECULE
*****
 30 33 0 0 0
SMALL
GASTEIGER

@<TRIPOS>ATOM
      1 C         141.1946  139.9437  167.6418 C.ar    1  UNL1        0.1427
      2 C         141.2468  139.6574  166.1703 C.ar    1  UNL1        0.0371
      3 C         139.9864  139.3340  165.4240 C.ar    1  UNL1        0.0045
      4 C         138.6739  139.2971  166.1492 C.ar    1  UNL1        0.0004
      5 C         138.6217  139.5835  167.6207 C.ar    1  UNL1        0.0076
      6 C         139.8821  139.9068  168.3670 C.ar    1  UNL1        0.0870
      7 C         140.0386  139.0477  163.9525 C.ar    1  UNL1        0.0193
      8 C         140.6035  137.7480  163.4610 C.ar    1  UNL1        0.0988
      9 N         140.6557  137.4616  161.9895 N.ar    1  UNL1       -0.2423
     10 C         140.1430  138.4749  161.0095 C.ar    1  UNL1        0.0989
     11 C         139.5781  139.7746  161.5011 C.ar    1  UNL1        0.0222
     12 C         139.5259  140.0610  162.9726 C.ar    1  UNL1        0.0032
     13 C         139.0654  140.7880  160.5212 C.ar    1  UNL1        0.0411
     14 C         139.1275  142.2782  160.6801 C.ar    1  UNL1        0.1217
     15 N         138.5010  142.9003  159.4674 N.ar    1  UNL1       -0.1676
     16 N         138.0517  141.7944  158.5590 N.ar    1  UNL1       -0.2463
     17 C         138.4005  140.4889  159.2102 C.ar    1  UNL1        0.0968
     18 C         137.3728  141.9642  157.2322 C.3     1  UNL1        0.1641
     19 C         137.3331  143.0437  156.1915 C.3     1  UNL1        0.1690
     20 O         136.4127  142.2043  155.3559 O.3     1  UNL1       -0.3495
     21 C         136.4524  141.1248  156.3966 C.3     1  UNL1        0.1690
     22 C         139.8299  140.1931  169.8385 C.2     1  UNL1        0.2457
     23 N         140.7188  139.4377  170.7815 N.am    1  UNL1       -0.3252
     24 O         138.8889  141.2348  170.3669 O.2     1  UNL1       -0.2703
     25 H         141.3364  138.7540  170.4347 H       1  UNL1        0.1453
     26 H         140.6845  139.6257  171.7473 H       1  UNL1        0.1453
     27 O         142.4550  140.2670  168.3881 O.3     1  UNL1       -0.4790
     28 C         143.2658  142.3414  169.7258 C.3     1  UNL1        0.0472
     29 C         142.9706  141.6753  168.4146 C.3     1  UNL1        0.1661
     30 C         143.1912  142.4176  167.1299 C.3     1  UNL1        0.0472
@<TRIPOS>BOND
     1    28    29    1
     2    29    30    1
     3    29    27    1
     4    27     1    1
     5     1     2   ar
     6     2     3   ar
     7     3     7    1
     8     7     8   ar
     9     8     9   ar
    10     9    10   ar
    11    10    11   ar
    12    11    13    1
    13    13    14   ar
    14    14    15   ar
    15    15    16   ar
    16    16    18    1
    17    18    19    1
    18    19    20    1
    19    20    21    1
    20    16    17   ar
    21    11    12   ar
    22     3     4   ar
    23     4     5   ar
    24     5     6   ar
    25     6    22    1
    26    22    23   am
    27    22    24    2
    28     6     1   ar
    29    12     7   ar
    30    17    13   ar
    31    21    18    1
    32    23    25    1
    33    23    26    1
@<TRIPOS>MOLECULE
*****
 30 33 0 0 0
SMALL
GASTEIGER

@<TRIPOS>ATOM
      1 C         141.1677  140.0058  168.0382 C.ar    1  UNL1        0.1427
      2 C         141.3827  139.6632  166.5938 C.ar    1  UNL1        0.0371
      3 C         140.2202  139.2533  165.7391 C.ar    1  UNL1        0.0045
      4 C         138.8426  139.1861  166.3288 C.ar    1  UNL1        0.0004
      5 C         138.6276  139.5287  167.7732 C.ar    1  UNL1        0.0076
      6 C         139.7902  139.9386  168.6279 C.ar    1  UNL1        0.0870
      7 C         140.4352  138.9107  164.2946 C.ar    1  UNL1        0.0193
      8 C         140.7656  137.5020  163.8991 C.ar    1  UNL1        0.0988
      9 N         140.9806  137.1593  162.4547 N.ar    1  UNL1       -0.2423
     10 C         140.8653  138.2253  161.4058 C.ar    1  UNL1        0.0989
     11 C         140.5350  139.6341  161.8012 C.ar    1  UNL1        0.0222
     12 C         140.3199  139.9767  163.2457 C.ar    1  UNL1        0.0032
     13 C         140.4197  140.7001  160.7523 C.ar    1  UNL1        0.0411
     14 C         139.3636  140.7815  159.6903 C.ar    1  UNL1        0.1217
     15 N         139.6315  142.0036  158.8629 N.ar    1  UNL1       -0.1676
     16 N         140.8532  142.6776  159.4136 N.ar    1  UNL1       -0.2463
     17 C         141.3403  141.8719  160.5813 C.ar    1  UNL1        0.0968
     18 C         141.4781  143.9362  158.8887 C.3     1  UNL1        0.1641
     19 C         142.6098  144.2492  157.9553 C.3     1  UNL1        0.1690
     20 O         142.3617  145.7161  158.1464 O.3     1  UNL1       -0.3495
     21 C         141.2300  145.4031  159.0798 C.3     1  UNL1        0.1690
     22 C         139.5751  140.2812  170.0723 C.2     1  UNL1        0.2457
     23 N         140.2876  139.5065  171.1410 N.am    1  UNL1       -0.3252
     24 O         138.6475  141.3986  170.4480 O.2     1  UNL1       -0.2703
     25 H         140.8964  138.7732  170.8944 H       1  UNL1        0.1453
     26 H         140.1465  139.7314  172.0891 H       1  UNL1        0.1453
     27 O         142.3302  140.4157  168.8928 O.3     1  UNL1       -0.4790
     28 C         142.5743  142.6527  170.1915 C.3     1  UNL1        0.0472
     29 C         142.7594  141.8523  168.9364 C.3     1  UNL1        0.1661
     30 C         143.3737  142.4887  167.7249 C.3     1  UNL1        0.0472
@<TRIPOS>BOND
     1    28    29    1
     2    29    30    1
     3    29    27    1
     4    27     1    1
     5     1     2   ar
     6     2     3   ar
     7     3     7    1
     8     7     8   ar
     9     8     9   ar
    10     9    10   ar
    11    10    11   ar
    12    11    13    1
    13    13    14   ar
    14    14    15   ar
    15    15    16   ar
    16    16    18    1
    17    18    19    1
    18    19    20    1
    19    20    21    1
    20    16    17   ar
    21    11    12   ar
    22     3     4   ar
    23     4     5   ar
    24     5     6   ar
    25     6    22    1
    26    22    23   am
    27    22    24    2
    28     6     1   ar
    29    12     7   ar
    30    17    13   ar
    31    21    18    1
    32    23    25    1
    33    23    26    1
@<TRIPOS>MOLECULE
*****
 30 33 0 0 0
SMALL
GASTEIGER

@<TRIPOS>ATOM
      1 C         142.6459  141.2158  168.0428 C.ar    1  UNL1        0.1427
      2 C         143.0349  141.7963  166.7156 C.ar    1  UNL1        0.0371
      3 C         143.4455  140.8910  165.5923 C.ar    1  UNL1        0.0045
      4 C         143.4670  139.4051  165.7963 C.ar    1  UNL1        0.0004
      5 C         143.0780  138.8246  167.1235 C.ar    1  UNL1        0.0076
      6 C         142.6674  139.7299  168.2468 C.ar    1  UNL1        0.0870
      7 C         143.8345  141.4716  164.2650 C.ar    1  UNL1        0.0193
      8 C         145.1958  141.1988  163.6971 C.ar    1  UNL1        0.0988
      9 N         145.5848  141.7793  162.3699 N.ar    1  UNL1       -0.2423
     10 C         144.6126  142.6327  161.6105 C.ar    1  UNL1        0.0989
     11 C         143.2513  142.9055  162.1784 C.ar    1  UNL1        0.0222
     12 C         142.8623  142.3249  163.5057 C.ar    1  UNL1        0.0032
     13 C         142.2791  143.7588  161.4191 C.ar    1  UNL1        0.0411
     14 C         141.4284  144.8519  161.9950 C.ar    1  UNL1        0.1217
     15 N         140.6104  145.4375  160.8824 N.ar    1  UNL1       -0.1676
     16 N         140.9556  144.7064  159.6189 N.ar    1  UNL1       -0.2463
     17 C         141.9869  143.6689  159.9506 C.ar    1  UNL1        0.0968
     18 C         140.3719  144.9671  158.2619 C.3     1  UNL1        0.1641
     19 C         140.2693  146.1638  157.3634 C.3     1  UNL1        0.1690
     20 O         139.5464  145.3356  156.3429 O.3     1  UNL1       -0.3495
     21 C         139.6490  144.1389  157.2413 C.3     1  UNL1        0.1690
     22 C         142.2784  139.1493  169.5741 C.2     1  UNL1        0.2457
     23 N         140.9586  139.5065  170.1911 N.am    1  UNL1       -0.3252
     24 O         143.2091  138.2116  170.2843 O.2     1  UNL1       -0.2703
     25 H         140.3478  140.1219  169.7249 H       1  UNL1        0.1453
     26 H         140.7033  139.1254  171.0622 H       1  UNL1        0.1453
     27 O         142.2354  142.1212  169.1661 O.3     1  UNL1       -0.4790
     28 C         139.9996  142.6463  167.9515 C.3     1  UNL1        0.0472
     29 C         140.9715  142.9219  169.0604 C.3     1  UNL1        0.1661
     30 C         140.6793  143.9983  170.0635 C.3     1  UNL1        0.0472
@<TRIPOS>BOND
     1    28    29    1
     2    29    30    1
     3    29    27    1
     4    27     1    1
     5     1     2   ar
     6     2     3   ar
     7     3     7    1
     8     7     8   ar
     9     8     9   ar
    10     9    10   ar
    11    10    11   ar
    12    11    13    1
    13    13    14   ar
    14    14    15   ar
    15    15    16   ar
    16    16    18    1
    17    18    19    1
    18    19    20    1
    19    20    21    1
    20    16    17   ar
    21    11    12   ar
    22     3     4   ar
    23     4     5   ar
    24     5     6   ar
    25     6    22    1
    26    22    23   am
    27    22    24    2
    28     6     1   ar
    29    12     7   ar
    30    17    13   ar
    31    21    18    1
    32    23    25    1
    33    23    26    1
@<TRIPOS>MOLECULE
*****
 30 33 0 0 0
SMALL
GASTEIGER

@<TRIPOS>ATOM
      1 C         142.2967  141.2285  168.5955 C.ar    1  UNL1        0.1427
      2 C         142.4436  142.0456  167.3463 C.ar    1  UNL1        0.0371
      3 C         142.8179  141.3807  166.0548 C.ar    1  UNL1        0.0045
      4 C         143.0453  139.8987  166.0126 C.ar    1  UNL1        0.0004
      5 C         142.8984  139.0815  167.2619 C.ar    1  UNL1        0.0076
      6 C         142.5241  139.7464  168.5533 C.ar    1  UNL1        0.0870
      7 C         142.9648  142.1979  164.8055 C.ar    1  UNL1        0.0193
      8 C         144.1889  143.0401  164.5999 C.ar    1  UNL1        0.0988
      9 N         144.3358  143.8573  163.3507 N.ar    1  UNL1       -0.2423
     10 C         143.2586  143.8323  162.3070 C.ar    1  UNL1        0.0989
     11 C         142.0345  142.9901  162.5127 C.ar    1  UNL1        0.0222
     12 C         141.8876  142.1729  163.7620 C.ar    1  UNL1        0.0032
     13 C         140.9573  142.9651  161.4692 C.ar    1  UNL1        0.0411
     14 C         140.0389  144.0993  161.1227 C.ar    1  UNL1        0.1217
     15 N         139.1234  143.6367  160.0282 N.ar    1  UNL1       -0.1676
     16 N         139.4760  142.2165  159.6983 N.ar    1  UNL1       -0.2463
     17 C         140.6095  141.8015  160.5889 C.ar    1  UNL1        0.0968
     18 C         138.8118  141.3615  158.6601 C.3     1  UNL1        0.1641
     19 C         138.8801  139.9129  158.2769 C.3     1  UNL1        0.1690
     20 O         137.8725  140.1524  157.1919 O.3     1  UNL1       -0.3495
     21 C         137.8042  141.6010  157.5751 C.3     1  UNL1        0.1690
     22 C         142.3773  138.9292  169.8026 C.2     1  UNL1        0.2457
     23 N         141.1641  139.0952  170.6691 N.am    1  UNL1       -0.3252
     24 O         143.4435  137.9461  170.1854 O.2     1  UNL1       -0.2703
     25 H         140.4643  139.7404  170.4178 H       1  UNL1        0.1453
     26 H         141.0677  138.5588  171.4890 H       1  UNL1        0.1453
     27 O         141.9224  141.8934  169.8870 O.3     1  UNL1       -0.4790
     28 C         139.3485  141.7893  170.2244 C.3     1  UNL1        0.0472
     29 C         140.6001  142.5894  170.0164 C.3     1  UNL1        0.1661
     30 C         140.5293  144.0858  169.9380 C.3     1  UNL1        0.0472
@<TRIPOS>BOND
     1    28    29    1
     2    29    30    1
     3    29    27    1
     4    27     1    1
     5     1     2   ar
     6     2     3   ar
     7     3     7    1
     8     7     8   ar
     9     8     9   ar
    10     9    10   ar
    11    10    11   ar
    12    11    13    1
    13    13    14   ar
    14    14    15   ar
    15    15    16   ar
    16    16    18    1
    17    18    19    1
    18    19    20    1
    19    20    21    1
    20    16    17   ar
    21    11    12   ar
    22     3     4   ar
    23     4     5   ar
    24     5     6   ar
    25     6    22    1
    26    22    23   am
    27    22    24    2
    28     6     1   ar
    29    12     7   ar
    30    17    13   ar
    31    21    18    1
    32    23    25    1
    33    23    26    1
@<TRIPOS>MOLECULE
*****
 30 33 0 0 0
SMALL
GASTEIGER

@<TRIPOS>ATOM
      1 C         140.8548  140.5017  168.5665 C.ar    1  UNL1        0.1427
      2 C         140.0771  140.8594  167.3347 C.ar    1  UNL1        0.0371
      3 C         140.5502  140.3972  165.9884 C.ar    1  UNL1        0.0045
      4 C         141.8010  139.5773  165.8739 C.ar    1  UNL1        0.0004
      5 C         142.5787  139.2195  167.1056 C.ar    1  UNL1        0.0076
      6 C         142.1056  139.6818  168.4519 C.ar    1  UNL1        0.0870
      7 C         139.7724  140.7550  164.7567 C.ar    1  UNL1        0.0193
      8 C         138.6271  139.8924  164.3160 C.ar    1  UNL1        0.0988
      9 N         137.8494  140.2501  163.0843 N.ar    1  UNL1       -0.2423
     10 C         138.2169  141.4704  162.2932 C.ar    1  UNL1        0.0989
     11 C         139.3622  142.3330  162.7339 C.ar    1  UNL1        0.0222
     12 C         140.1400  141.9752  163.9657 C.ar    1  UNL1        0.0032
     13 C         139.7298  143.5533  161.9429 C.ar    1  UNL1        0.0411
     14 C         139.8419  144.9501  162.4779 C.ar    1  UNL1        0.1217
     15 N         140.2312  145.8511  161.3437 N.ar    1  UNL1       -0.1676
     16 N         140.3597  145.0111  160.1075 N.ar    1  UNL1       -0.2463
     17 C         140.0498  143.5910  160.4779 C.ar    1  UNL1        0.0968
     18 C         140.7326  145.5046  158.7410 C.3     1  UNL1        0.1641
     19 C         139.9746  146.0471  157.5658 C.3     1  UNL1        0.1690
     20 O         141.2601  146.2025  156.8084 O.3     1  UNL1       -0.3495
     21 C         142.0181  145.6601  157.9837 C.3     1  UNL1        0.1690
     22 C         142.8834  139.3240  169.6837 C.2     1  UNL1        0.2457
     23 N         143.4022  140.4060  170.5837 N.am    1  UNL1       -0.3252
     24 O         143.1423  137.8842  170.0153 O.2     1  UNL1       -0.2703
     25 H         143.2322  141.3510  170.3659 H       1  UNL1        0.1453
     26 H         143.9126  140.1712  171.3921 H       1  UNL1        0.1453
     27 O         140.3817  140.9639  169.9128 O.3     1  UNL1       -0.4790
     28 C         139.3284  143.0256  171.0917 C.3     1  UNL1        0.0472
     29 C         140.4227  142.4220  170.2622 C.3     1  UNL1        0.1661
     30 C         141.5582  143.2767  169.7821 C.3     1  UNL1        0.0472
@<TRIPOS>BOND
     1    28    29    1
     2    29    30    1
     3    29    27    1
     4    27     1    1
     5     1     2   ar
     6     2     3   ar
     7     3     7    1
     8     7     8   ar
     9     8     9   ar
    10     9    10   ar
    11    10    11   ar
    12    11    13    1
    13    13    14   ar
    14    14    15   ar
    15    15    16   ar
    16    16    18    1
    17    18    19    1
    18    19    20    1
    19    20    21    1
    20    16    17   ar
    21    11    12   ar
    22     3     4   ar
    23     4     5   ar
    24     5     6   ar
    25     6    22    1
    26    22    23   am
    27    22    24    2
    28     6     1   ar
    29    12     7   ar
    30    17    13   ar
    31    21    18    1
    32    23    25    1
    33    23    26    1
@<TRIPOS>MOLECULE
*****
 30 33 0 0 0
SMALL
GASTEIGER

@<TRIPOS>ATOM
      1 C         140.2419  140.4530  167.6591 C.ar    1  UNL1        0.1427
      2 C         141.0966  140.4966  166.4272 C.ar    1  UNL1        0.0371
      3 C         142.3639  141.2991  166.4216 C.ar    1  UNL1        0.0045
      4 C         142.7765  142.0579  167.6479 C.ar    1  UNL1        0.0004
      5 C         141.9218  142.0143  168.8798 C.ar    1  UNL1        0.0076
      6 C         140.6545  141.2119  168.8853 C.ar    1  UNL1        0.0870
      7 C         143.2186  141.3427  165.1896 C.ar    1  UNL1        0.0193
      8 C         144.3321  142.3422  165.0843 C.ar    1  UNL1        0.0988
      9 N         145.1868  142.3858  163.8524 N.ar    1  UNL1       -0.2423
     10 C         144.9279  141.4299  162.7258 C.ar    1  UNL1        0.0989
     11 C         143.8144  140.4304  162.8311 C.ar    1  UNL1        0.0222
     12 C         142.9597  140.3868  164.0630 C.ar    1  UNL1        0.0032
     13 C         143.5556  139.4745  161.7045 C.ar    1  UNL1        0.0411
     14 C         143.4518  137.9825  161.8203 C.ar    1  UNL1        0.1217
     15 N         143.1872  137.4287  160.4517 N.ar    1  UNL1       -0.1676
     16 N         143.1274  138.5783  159.4900 N.ar    1  UNL1       -0.2463
     17 C         143.3552  139.8427  160.2643 C.ar    1  UNL1        0.0968
     18 C         142.8829  138.4807  158.0132 C.3     1  UNL1        0.1641
     19 C         142.6304  139.4678  156.9124 C.3     1  UNL1        0.1690
     20 O         142.5372  138.3426  155.9248 O.3     1  UNL1       -0.3495
     21 C         142.7897  137.3555  157.0257 C.3     1  UNL1        0.1690
     22 C         139.7998  141.1683  170.1173 C.2     1  UNL1        0.2457
     23 N         139.3488  139.8491  170.6709 N.am    1  UNL1       -0.3252
     24 O         139.3962  142.4438  170.7956 O.2     1  UNL1       -0.2703
     25 H         139.6138  139.0120  170.2257 H       1  UNL1        0.1453
     26 H         138.7879  139.8205  171.4795 H       1  UNL1        0.1453
     27 O         138.9746  139.6505  167.6646 O.3     1  UNL1       -0.4790
     28 C         138.1111  140.0629  165.2492 C.3     1  UNL1        0.0472
     29 C         138.4160  139.1219  166.3769 C.3     1  UNL1        0.1661
     30 C         138.1621  137.6522  166.2167 C.3     1  UNL1        0.0472
@<TRIPOS>BOND
     1    28    29    1
     2    29    30    1
     3    29    27    1
     4    27     1    1
     5     1     2   ar
     6     2     3   ar
     7     3     7    1
     8     7     8   ar
     9     8     9   ar
    10     9    10   ar
    11    10    11   ar
    12    11    13    1
    13    13    14   ar
    14    14    15   ar
    15    15    16   ar
    16    16    18    1
    17    18    19    1
    18    19    20    1
    19    20    21    1
    20    16    17   ar
    21    11    12   ar
    22     3     4   ar
    23     4     5   ar
    24     5     6   ar
    25     6    22    1
    26    22    23   am
    27    22    24    2
    28     6     1   ar
    29    12     7   ar
    30    17    13   ar
    31    21    18    1
    32    23    25    1
    33    23    26    1
