@<TRIPOS>MOLECULE
*****
 36 40 0 0 0
SMALL
GASTEIGER

@<TRIPOS>ATOM
      1 C         143.5686  141.1093  160.6516 C.ar    1  UNL1        0.0967
      2 C         142.4549  142.0081  161.1010 C.ar    1  UNL1        0.0399
      3 C         142.3497  141.9048  162.5937 C.ar    1  UNL1        0.1165
      4 C         141.4344  142.5629  163.5833 C.ar    1  UNL1        0.1497
      5 N         141.5679  142.2583  165.0460 N.ar    1  UNL1       -0.2266
      6 C         142.6164  141.2958  165.5191 C.ar    1  UNL1        0.1141
      7 C         143.5317  140.6377  164.5296 C.ar    1  UNL1        0.1575
      8 CL        144.5803  139.6751  165.0027 Cl      1  UNL1       -0.0597
      9 N         143.3983  140.9422  163.0669 N.ar    1  UNL1       -0.2151
     10 N         144.1516  140.4506  161.8665 N.ar    1  UNL1       -0.1672
     11 C         142.7499  140.9913  166.9819 C.ar    1  UNL1        0.0585
     12 C         142.6145  139.5793  167.4694 C.ar    1  UNL1        0.1049
     13 N         142.7479  139.2747  168.9321 N.ar    1  UNL1       -0.2124
     14 C         143.0167  140.3824  169.9073 C.ar    1  UNL1        0.2137
     15 N         143.1502  140.0779  171.3700 N.pl3   1  UNL1       -0.3274
     16 N         143.1521  141.7944  169.4197 N.ar    1  UNL1       -0.2124
     17 C         143.0187  142.0989  167.9570 C.ar    1  UNL1        0.1049
     18 H         143.0613  139.1511  171.6900 H       1  UNL1        0.1452
     19 H         143.3266  140.8049  172.0100 H       1  UNL1        0.1452
     20 N         140.3858  143.5255  163.1102 N.pl3   1  UNL1       -0.2869
     21 C         140.7899  144.8382  162.5073 C.3     1  UNL1        0.1243
     22 C         139.7412  145.8007  162.0343 C.3     1  UNL1        0.1636
     23 O         138.2885  145.4505  162.1642 O.3     1  UNL1       -0.3501
     24 C         137.8843  144.1378  162.7670 C.3     1  UNL1        0.1636
     25 C         138.9330  143.1753  163.2401 C.3     1  UNL1        0.1243
     26 C         144.0200  140.9052  159.2358 C.3     1  UNL1        0.1206
     27 N         142.6922  137.2608  156.9540 N.3     1  UNL1       -0.1565
     28 C         143.2364  138.4493  156.2183 C.3     1  UNL1        0.1128
     29 C         143.6790  139.6641  156.9789 C.3     1  UNL1        0.0918
     30 N         143.5774  139.6904  158.4752 N.3     1  UNL1       -0.2651
     31 C         143.0332  138.5018  159.2110 C.3     1  UNL1        0.0918
     32 C         142.5907  137.2871  158.4504 C.3     1  UNL1        0.1128
     33 C         141.8071  134.8313  155.4330 C.3     1  UNL1        0.1960
     34 S         142.2496  136.0461  156.1935 S.O2    1  UNL1        0.0457
     35 O         140.8586  136.6018  156.1154 O.2     1  UNL1       -0.1572
     36 O         143.6407  135.4903  156.2717 O.2     1  UNL1       -0.1572
@<TRIPOS>BOND
     1    33    34    1
     2    34    35    2
     3    34    36    2
     4    34    27    1
     5    27    28    1
     6    28    29    1
     7    29    30    1
     8    30    26    1
     9    26     1    1
    10     1     2   ar
    11     2     3   ar
    12     3     4   ar
    13     4    20    1
    14    20    21    1
    15    21    22    1
    16    22    23    1
    17    23    24    1
    18    24    25    1
    19     4     5   ar
    20     5     6   ar
    21     6    11    1
    22    11    12   ar
    23    12    13   ar
    24    13    14   ar
    25    14    15    1
    26    14    16   ar
    27    16    17   ar
    28     6     7   ar
    29     7     8    1
    30     7     9   ar
    31     9    10   ar
    32    30    31    1
    33    31    32    1
    34    32    27    1
    35    10     1   ar
    36     9     3   ar
    37    25    20    1
    38    17    11   ar
    39    15    18    1
    40    15    19    1
@<TRIPOS>MOLECULE
*****
 36 40 0 0 0
SMALL
GASTEIGER

@<TRIPOS>ATOM
      1 C         139.6901  139.7457  161.1461 C.ar    1  UNL1        0.0967
      2 C         140.6586  140.8091  161.5716 C.ar    1  UNL1        0.0399
      3 C         140.7307  140.7977  163.0698 C.ar    1  UNL1        0.1165
      4 C         141.5183  141.6238  164.0430 C.ar    1  UNL1        0.1497
      5 N         141.3819  141.3794  165.5167 N.ar    1  UNL1       -0.2266
      6 C         140.4580  140.3091  166.0171 C.ar    1  UNL1        0.1141
      7 C         139.6703  139.4830  165.0439 C.ar    1  UNL1        0.1575
      8 CL        138.7463  138.4126  165.5444 Cl      1  UNL1       -0.0597
      9 N         139.8067  139.7273  163.5703 N.ar    1  UNL1       -0.2151
     10 N         139.1636  139.0771  162.3813 N.ar    1  UNL1       -0.1672
     11 C         140.3216  140.0647  167.4909 C.ar    1  UNL1        0.0585
     12 C         141.5444  139.8437  168.3308 C.ar    1  UNL1        0.1049
     13 N         141.4080  139.5993  169.8045 N.ar    1  UNL1       -0.2124
     14 C         140.0486  139.5760  170.4381 C.ar    1  UNL1        0.2137
     15 N         139.9121  139.3316  171.9118 N.pl3   1  UNL1       -0.3274
     16 N         138.8257  139.7970  169.5981 N.ar    1  UNL1       -0.2124
     17 C         138.9622  140.0414  168.1245 C.ar    1  UNL1        0.1049
     18 H         140.7148  139.1865  172.4631 H       1  UNL1        0.1452
     19 H         139.0199  139.3163  172.3277 H       1  UNL1        0.1452
     20 N         142.4424  142.6943  163.5427 N.pl3   1  UNL1       -0.2869
     21 C         143.6137  142.3305  162.6792 C.3     1  UNL1        0.1243
     22 C         144.5376  143.4010  162.1788 C.3     1  UNL1        0.1636
     23 O         144.2902  144.8352  162.5420 O.3     1  UNL1       -0.3501
     24 C         143.1189  145.1990  163.4055 C.3     1  UNL1        0.1636
     25 C         142.1950  144.1285  163.9059 C.3     1  UNL1        0.1243
     26 C         139.3141  139.4098  159.7334 C.3     1  UNL1        0.1206
     27 N         142.1536  137.0662  157.1459 N.3     1  UNL1       -0.1565
     28 C         142.6322  137.6602  158.4374 C.3     1  UNL1        0.1128
     29 C         141.6856  138.4414  159.2999 C.3     1  UNL1        0.0918
     30 N         140.2605  138.6286  158.8708 N.3     1  UNL1       -0.2651
     31 C         139.7820  138.0345  157.5793 C.3     1  UNL1        0.0918
     32 C         140.7285  137.2533  156.7168 C.3     1  UNL1        0.1128
     33 C         144.0464  135.5037  155.4209 C.3     1  UNL1        0.1960
     34 S         143.1000  136.2850  156.2834 S.O2    1  UNL1        0.0457
     35 O         144.0079  137.4761  156.2007 O.2     1  UNL1       -0.1572
     36 O         142.1921  135.0938  156.3660 O.2     1  UNL1       -0.1572
@<TRIPOS>BOND
     1    33    34    1
     2    34    35    2
     3    34    36    2
     4    34    27    1
     5    27    28    1
     6    28    29    1
     7    29    30    1
     8    30    26    1
     9    26     1    1
    10     1     2   ar
    11     2     3   ar
    12     3     4   ar
    13     4    20    1
    14    20    21    1
    15    21    22    1
    16    22    23    1
    17    23    24    1
    18    24    25    1
    19     4     5   ar
    20     5     6   ar
    21     6    11    1
    22    11    12   ar
    23    12    13   ar
    24    13    14   ar
    25    14    15    1
    26    14    16   ar
    27    16    17   ar
    28     6     7   ar
    29     7     8    1
    30     7     9   ar
    31     9    10   ar
    32    30    31    1
    33    31    32    1
    34    32    27    1
    35    10     1   ar
    36     9     3   ar
    37    25    20    1
    38    17    11   ar
    39    15    18    1
    40    15    19    1
@<TRIPOS>MOLECULE
*****
 36 40 0 0 0
SMALL
GASTEIGER

@<TRIPOS>ATOM
      1 C         143.2266  140.5891  160.6897 C.ar    1  UNL1        0.0967
      2 C         142.2261  141.6131  161.1373 C.ar    1  UNL1        0.0399
      3 C         142.1718  141.5838  162.6361 C.ar    1  UNL1        0.1165
      4 C         141.3668  142.3715  163.6268 C.ar    1  UNL1        0.1497
      5 N         141.5289  142.1170  165.0962 N.ar    1  UNL1       -0.2266
      6 C         142.4958  141.0751  165.5748 C.ar    1  UNL1        0.1141
      7 C         143.3008  140.2874  164.5840 C.ar    1  UNL1        0.1575
      8 CL        144.2679  139.2454  165.0627 Cl      1  UNL1       -0.0597
      9 N         143.1388  140.5418  163.1147 N.ar    1  UNL1       -0.2151
     10 N         143.7907  139.9270  161.9117 N.ar    1  UNL1       -0.1672
     11 C         142.6579  140.8206  167.0442 C.ar    1  UNL1        0.0585
     12 C         142.4878  139.4333  167.5884 C.ar    1  UNL1        0.1049
     13 N         142.6499  139.1788  169.0578 N.ar    1  UNL1       -0.2124
     14 C         142.9820  140.3119  169.9829 C.ar    1  UNL1        0.2137
     15 N         143.1441  140.0575  171.4523 N.pl3   1  UNL1       -0.3274
     16 N         143.1521  141.6993  169.4387 N.ar    1  UNL1       -0.2124
     17 C         142.9900  141.9536  167.9693 C.ar    1  UNL1        0.1049
     18 H         143.0325  139.1469  171.8094 H       1  UNL1        0.1452
     19 H         143.3621  140.8011  172.0595 H       1  UNL1        0.1452
     20 N         140.3998  143.4136  163.1482 N.pl3   1  UNL1       -0.2869
     21 C         140.9075  144.6612  162.4884 C.3     1  UNL1        0.1243
     22 C         139.9404  145.7032  162.0099 C.3     1  UNL1        0.1636
     23 O         138.4657  145.4975  162.1913 O.3     1  UNL1       -0.3501
     24 C         137.9580  144.2498  162.8511 C.3     1  UNL1        0.1636
     25 C         138.9251  143.2078  163.3296 C.3     1  UNL1        0.1243
     26 C         143.5978  140.2812  159.2693 C.3     1  UNL1        0.1206
     27 N         140.5583  138.4644  156.4925 N.3     1  UNL1       -0.1565
     28 C         140.5497  139.9420  156.7505 C.3     1  UNL1        0.1128
     29 C         141.5630  140.5476  157.6762 C.3     1  UNL1        0.0918
     30 N         142.5847  139.6756  158.3438 N.3     1  UNL1       -0.2651
     31 C         142.5932  138.1979  158.0857 C.3     1  UNL1        0.0918
     32 C         141.5800  137.5924  157.1601 C.3     1  UNL1        0.1128
     33 C         138.5320  137.2532  154.6414 C.3     1  UNL1        0.1960
     34 S         139.5452  137.8588  155.5669 S.O2    1  UNL1        0.0457
     35 O         140.5843  136.9075  155.0519 O.2     1  UNL1       -0.1572
     36 O         138.5060  138.8101  156.0819 O.2     1  UNL1       -0.1572
@<TRIPOS>BOND
     1    33    34    1
     2    34    35    2
     3    34    36    2
     4    34    27    1
     5    27    28    1
     6    28    29    1
     7    29    30    1
     8    30    26    1
     9    26     1    1
    10     1     2   ar
    11     2     3   ar
    12     3     4   ar
    13     4    20    1
    14    20    21    1
    15    21    22    1
    16    22    23    1
    17    23    24    1
    18    24    25    1
    19     4     5   ar
    20     5     6   ar
    21     6    11    1
    22    11    12   ar
    23    12    13   ar
    24    13    14   ar
    25    14    15    1
    26    14    16   ar
    27    16    17   ar
    28     6     7   ar
    29     7     8    1
    30     7     9   ar
    31     9    10   ar
    32    30    31    1
    33    31    32    1
    34    32    27    1
    35    10     1   ar
    36     9     3   ar
    37    25    20    1
    38    17    11   ar
    39    15    18    1
    40    15    19    1
@<TRIPOS>MOLECULE
*****
 36 40 0 0 0
SMALL
GASTEIGER

@<TRIPOS>ATOM
      1 C         141.1798  139.1095  161.2965 C.ar    1  UNL1        0.0967
      2 C         140.6242  140.4682  161.6051 C.ar    1  UNL1        0.0399
      3 C         140.7841  140.7110  163.0767 C.ar    1  UNL1        0.1165
      4 C         140.4183  141.8765  163.9472 C.ar    1  UNL1        0.1497
      5 N         140.7070  141.8333  165.4186 N.ar    1  UNL1       -0.2266
      6 C         141.3614  140.6247  166.0193 C.ar    1  UNL1        0.1141
      7 C         141.7272  139.4592  165.1488 C.ar    1  UNL1        0.1575
      8 CL        142.3816  138.2506  165.7497 Cl      1  UNL1       -0.0597
      9 N         141.4385  139.5023  163.6775 N.ar    1  UNL1       -0.2151
     10 N         141.6831  138.5126  162.5773 N.ar    1  UNL1       -0.1672
     11 C         141.6501  140.5815  167.4907 C.ar    1  UNL1        0.0585
     12 C         140.6987  139.8904  168.4217 C.ar    1  UNL1        0.1049
     13 N         140.9874  139.8472  169.8931 N.ar    1  UNL1       -0.2124
     14 C         142.2276  140.4953  170.4333 C.ar    1  UNL1        0.2137
     15 N         142.5163  140.4521  171.9046 N.pl3   1  UNL1       -0.3274
     16 N         143.1791  141.1865  169.5022 N.ar    1  UNL1       -0.2124
     17 C         142.8903  141.2296  168.0309 C.ar    1  UNL1        0.1049
     18 H         141.8919  139.9985  172.5157 H       1  UNL1        0.1452
     19 H         143.3303  140.8775  172.2592 H       1  UNL1        0.1452
     20 N         139.7639  143.0852  163.3465 N.pl3   1  UNL1       -0.2869
     21 C         140.5823  144.0721  162.5680 C.3     1  UNL1        0.1243
     22 C         139.9278  145.2808  161.9673 C.3     1  UNL1        0.1636
     23 O         138.4550  145.5024  162.1451 O.3     1  UNL1       -0.3501
     24 C         137.6366  144.5154  162.9235 C.3     1  UNL1        0.1636
     25 C         138.2911  143.3067  163.5242 C.3     1  UNL1        0.1243
     26 C         141.2243  138.4615  159.9444 C.3     1  UNL1        0.1206
     27 N         144.1953  139.8687  156.8715 N.3     1  UNL1       -0.1565
     28 C         143.2085  138.7939  156.5235 C.3     1  UNL1        0.1128
     29 C         142.2181  138.3249  157.5479 C.3     1  UNL1        0.0918
     30 N         142.2146  138.9306  158.9202 N.3     1  UNL1       -0.2651
     31 C         143.2015  140.0053  159.2681 C.3     1  UNL1        0.0918
     32 C         144.1918  140.4743  158.2437 C.3     1  UNL1        0.1128
     33 C         146.1760  140.8067  154.8229 C.3     1  UNL1        0.1960
     34 S         145.1857  140.3377  155.8472 S.O2    1  UNL1        0.0457
     35 O         144.7322  141.7521  156.0565 O.2     1  UNL1       -0.1572
     36 O         145.6391  138.9233  155.6379 O.2     1  UNL1       -0.1572
@<TRIPOS>BOND
     1    33    34    1
     2    34    35    2
     3    34    36    2
     4    34    27    1
     5    27    28    1
     6    28    29    1
     7    29    30    1
     8    30    26    1
     9    26     1    1
    10     1     2   ar
    11     2     3   ar
    12     3     4   ar
    13     4    20    1
    14    20    21    1
    15    21    22    1
    16    22    23    1
    17    23    24    1
    18    24    25    1
    19     4     5   ar
    20     5     6   ar
    21     6    11    1
    22    11    12   ar
    23    12    13   ar
    24    13    14   ar
    25    14    15    1
    26    14    16   ar
    27    16    17   ar
    28     6     7   ar
    29     7     8    1
    30     7     9   ar
    31     9    10   ar
    32    30    31    1
    33    31    32    1
    34    32    27    1
    35    10     1   ar
    36     9     3   ar
    37    25    20    1
    38    17    11   ar
    39    15    18    1
    40    15    19    1
@<TRIPOS>MOLECULE
*****
 36 40 0 0 0
SMALL
GASTEIGER

@<TRIPOS>ATOM
      1 C         142.8768  142.8291  160.7512 C.ar    1  UNL1        0.0967
      2 C         141.7397  141.9003  161.0582 C.ar    1  UNL1        0.0399
      3 C         141.5958  141.8209  162.5492 C.ar    1  UNL1        0.1165
      4 C         140.6457  141.0612  163.4267 C.ar    1  UNL1        0.1497
      5 N         140.7438  141.1813  164.9188 N.ar    1  UNL1       -0.2266
      6 C         141.7918  142.0610  165.5331 C.ar    1  UNL1        0.1141
      7 C         142.7419  142.8207  164.6556 C.ar    1  UNL1        0.1575
      8 CL        143.7900  143.7005  165.2700 Cl      1  UNL1       -0.0597
      9 N         142.6439  142.7007  163.1636 N.ar    1  UNL1       -0.2151
     10 N         143.4356  143.3238  162.0523 N.ar    1  UNL1       -0.1672
     11 C         141.8899  142.1811  167.0251 C.ar    1  UNL1        0.0585
     12 C         143.0889  141.6377  167.7441 C.ar    1  UNL1        0.1049
     13 N         143.1870  141.7578  169.2361 N.ar    1  UNL1       -0.2124
     14 C         142.0860  142.4214  170.0091 C.ar    1  UNL1        0.2137
     15 N         142.1840  142.5415  171.5010 N.pl3   1  UNL1       -0.3274
     16 N         140.8869  142.9648  169.2900 N.ar    1  UNL1       -0.2124
     17 C         140.7889  142.8447  167.7981 C.ar    1  UNL1        0.1049
     18 H         142.9709  142.1848  171.9729 H       1  UNL1        0.1452
     19 H         141.4613  142.9770  172.0083 H       1  UNL1        0.1452
     20 N         139.5976  140.1814  162.8124 N.pl3   1  UNL1       -0.2869
     21 C         138.5384  140.7780  161.9337 C.3     1  UNL1        0.1243
     22 C         137.4903  139.8982  161.3194 C.3     1  UNL1        0.1636
     23 O         137.5014  138.4217  161.5839 O.3     1  UNL1       -0.3501
     24 C         138.5605  137.8251  162.4626 C.3     1  UNL1        0.1636
     25 C         139.6086  138.7049  163.0769 C.3     1  UNL1        0.1243
     26 C         143.3688  143.1984  159.3831 C.3     1  UNL1        0.1206
     27 N         140.8434  145.7893  156.7073 N.3     1  UNL1       -0.1565
     28 C         141.8899  144.8936  156.1136 C.3     1  UNL1        0.1128
     29 C         142.7317  144.0300  157.0056 C.3     1  UNL1        0.0918
     30 N         142.5270  144.0620  158.4912 N.3     1  UNL1       -0.2651
     31 C         141.4804  144.9578  159.0848 C.3     1  UNL1        0.0918
     32 C         140.6386  145.8213  158.1929 C.3     1  UNL1        0.1128
     33 C         139.1597  147.5165  154.9236 C.3     1  UNL1        0.1960
     34 S         140.0015  146.6529  155.8154 S.O2    1  UNL1        0.0457
     35 O         140.6863  146.0770  154.6114 O.2     1  UNL1       -0.1572
     36 O         139.3168  147.2288  157.0193 O.2     1  UNL1       -0.1572
@<TRIPOS>BOND
     1    33    34    1
     2    34    35    2
     3    34    36    2
     4    34    27    1
     5    27    28    1
     6    28    29    1
     7    29    30    1
     8    30    26    1
     9    26     1    1
    10     1     2   ar
    11     2     3   ar
    12     3     4   ar
    13     4    20    1
    14    20    21    1
    15    21    22    1
    16    22    23    1
    17    23    24    1
    18    24    25    1
    19     4     5   ar
    20     5     6   ar
    21     6    11    1
    22    11    12   ar
    23    12    13   ar
    24    13    14   ar
    25    14    15    1
    26    14    16   ar
    27    16    17   ar
    28     6     7   ar
    29     7     8    1
    30     7     9   ar
    31     9    10   ar
    32    30    31    1
    33    31    32    1
    34    32    27    1
    35    10     1   ar
    36     9     3   ar
    37    25    20    1
    38    17    11   ar
    39    15    18    1
    40    15    19    1
@<TRIPOS>MOLECULE
*****
 36 40 0 0 0
SMALL
GASTEIGER

@<TRIPOS>ATOM
      1 C         140.0534  139.4008  161.7430 C.ar    1  UNL1        0.0967
      2 C         140.1340  140.8906  161.5886 C.ar    1  UNL1        0.0399
      3 C         140.5248  141.4735  162.9143 C.ar    1  UNL1        0.1165
      4 C         140.7549  142.8870  163.3605 C.ar    1  UNL1        0.1497
      5 N         141.1460  143.1708  164.7806 N.ar    1  UNL1       -0.2266
      6 C         141.3069  142.0413  165.7543 C.ar    1  UNL1        0.1141
      7 C         141.0769  140.6278  165.3080 C.ar    1  UNL1        0.1575
      8 CL        141.2378  139.4983  166.2818 Cl      1  UNL1       -0.0597
      9 N         140.6858  140.3439  163.8880 N.ar    1  UNL1       -0.2151
     10 N         140.3945  139.0629  163.1641 N.ar    1  UNL1       -0.1672
     11 C         141.6980  142.3251  167.1744 C.ar    1  UNL1        0.0585
     12 C         140.6456  142.6580  168.1899 C.ar    1  UNL1        0.1049
     13 N         141.0367  142.9418  169.6100 N.ar    1  UNL1       -0.2124
     14 C         142.4803  142.8928  170.0144 C.ar    1  UNL1        0.2137
     15 N         142.8714  143.1766  171.4345 N.pl3   1  UNL1       -0.3274
     16 N         143.5327  142.5599  168.9988 N.ar    1  UNL1       -0.2124
     17 C         143.1416  142.2760  167.5788 C.ar    1  UNL1        0.1049
     18 H         142.1806  143.3951  172.1010 H       1  UNL1        0.1452
     19 H         143.8189  143.1444  171.6999 H       1  UNL1        0.1452
     20 N         140.5940  144.0166  162.3868 N.pl3   1  UNL1       -0.2869
     21 C         139.6785  145.1601  162.7095 C.3     1  UNL1        0.1243
     22 C         139.5176  146.2897  161.7357 C.3     1  UNL1        0.1636
     23 O         140.2722  146.2757  160.4394 O.3     1  UNL1       -0.3501
     24 C         141.1877  145.1322  160.1168 C.3     1  UNL1        0.1636
     25 C         141.3486  144.0026  161.0906 C.3     1  UNL1        0.1243
     26 C         139.6948  138.4208  160.6655 C.3     1  UNL1        0.1206
     27 N         141.9490  138.4341  156.7708 N.3     1  UNL1       -0.1565
     28 C         140.4502  138.4945  156.7701 C.3     1  UNL1        0.1128
     29 C         139.6988  138.4900  158.0684 C.3     1  UNL1        0.0918
     30 N         140.4462  138.4252  159.3673 N.3     1  UNL1       -0.2651
     31 C         141.9450  138.3648  159.3679 C.3     1  UNL1        0.0918
     32 C         142.6964  138.3693  158.0697 C.3     1  UNL1        0.1128
     33 C         143.4517  138.4430  154.1743 C.3     1  UNL1        0.1960
     34 S         142.7004  138.4385  155.4726 S.O2    1  UNL1        0.0457
     35 O         143.9691  138.1181  156.2058 O.2     1  UNL1       -0.1572
     36 O         141.4317  138.7590  154.7393 O.2     1  UNL1       -0.1572
@<TRIPOS>BOND
     1    33    34    1
     2    34    35    2
     3    34    36    2
     4    34    27    1
     5    27    28    1
     6    28    29    1
     7    29    30    1
     8    30    26    1
     9    26     1    1
    10     1     2   ar
    11     2     3   ar
    12     3     4   ar
    13     4    20    1
    14    20    21    1
    15    21    22    1
    16    22    23    1
    17    23    24    1
    18    24    25    1
    19     4     5   ar
    20     5     6   ar
    21     6    11    1
    22    11    12   ar
    23    12    13   ar
    24    13    14   ar
    25    14    15    1
    26    14    16   ar
    27    16    17   ar
    28     6     7   ar
    29     7     8    1
    30     7     9   ar
    31     9    10   ar
    32    30    31    1
    33    31    32    1
    34    32    27    1
    35    10     1   ar
    36     9     3   ar
    37    25    20    1
    38    17    11   ar
    39    15    18    1
    40    15    19    1
@<TRIPOS>MOLECULE
*****
 36 40 0 0 0
SMALL
GASTEIGER

@<TRIPOS>ATOM
      1 C         140.9759  144.0305  161.3914 C.ar    1  UNL1        0.0967
      2 C         141.4366  142.6097  161.2537 C.ar    1  UNL1        0.0399
      3 C         141.2990  141.9461  162.5918 C.ar    1  UNL1        0.1165
      4 C         141.6001  140.5520  163.0565 C.ar    1  UNL1        0.1497
      5 N         141.3554  140.1687  164.4859 N.ar    1  UNL1       -0.2266
      6 C         140.8096  141.1793  165.4506 C.ar    1  UNL1        0.1141
      7 C         140.5085  142.5733  164.9859 C.ar    1  UNL1        0.1575
      8 CL        139.9626  143.5839  165.9506 Cl      1  UNL1       -0.0597
      9 N         140.7531  142.9567  163.5565 N.ar    1  UNL1       -0.2151
     10 N         140.5535  144.2450  162.8146 N.ar    1  UNL1       -0.1672
     11 C         140.5649  140.7959  166.8800 C.ar    1  UNL1        0.0585
     12 C         141.5709  141.1507  167.9344 C.ar    1  UNL1        0.1049
     13 N         141.3262  140.7673  169.3639 N.ar    1  UNL1       -0.2124
     14 C         140.0754  140.0291  169.7387 C.ar    1  UNL1        0.2137
     15 N         139.8306  139.6458  171.1681 N.pl3   1  UNL1       -0.3274
     16 N         139.0693  139.6743  168.6842 N.ar    1  UNL1       -0.2124
     17 C         139.3141  140.0577  167.2549 C.ar    1  UNL1        0.1049
     18 H         140.4909  139.8787  171.8602 H       1  UNL1        0.1452
     19 H         139.0097  139.1613  171.4142 H       1  UNL1        0.1452
     20 N         142.1460  139.5413  162.0918 N.pl3   1  UNL1       -0.2869
     21 C         141.3635  139.1764  160.8652 C.3     1  UNL1        0.1243
     22 C         141.9095  138.1656  159.9006 C.3     1  UNL1        0.1636
     23 O         143.2378  137.5199  160.1626 O.3     1  UNL1       -0.3501
     24 C         144.0202  137.8849  161.3892 C.3     1  UNL1        0.1636
     25 C         143.4743  138.8956  162.3538 C.3     1  UNL1        0.1243
     26 C         140.9433  145.0568  160.2979 C.3     1  UNL1        0.1206
     27 N         138.9024  144.1241  156.3972 N.3     1  UNL1       -0.1565
     28 C         138.7496  143.1946  157.5646 C.3     1  UNL1        0.1128
     29 C         139.4299  143.5056  158.8648 C.3     1  UNL1        0.0918
     30 N         140.2630  144.7459  158.9976 N.3     1  UNL1       -0.2651
     31 C         140.4158  145.6753  157.8302 C.3     1  UNL1        0.0918
     32 C         139.7355  145.3643  156.5300 C.3     1  UNL1        0.1128
     33 C         137.5419  143.5024  153.7968 C.3     1  UNL1        0.1960
     34 S         138.2222  143.8132  155.0969 S.O2    1  UNL1        0.0457
     35 O         139.5536  143.5236  154.4696 O.2     1  UNL1       -0.1572
     36 O         136.8908  144.1028  155.7242 O.2     1  UNL1       -0.1572
@<TRIPOS>BOND
     1    33    34    1
     2    34    35    2
     3    34    36    2
     4    34    27    1
     5    27    28    1
     6    28    29    1
     7    29    30    1
     8    30    26    1
     9    26     1    1
    10     1     2   ar
    11     2     3   ar
    12     3     4   ar
    13     4    20    1
    14    20    21    1
    15    21    22    1
    16    22    23    1
    17    23    24    1
    18    24    25    1
    19     4     5   ar
    20     5     6   ar
    21     6    11    1
    22    11    12   ar
    23    12    13   ar
    24    13    14   ar
    25    14    15    1
    26    14    16   ar
    27    16    17   ar
    28     6     7   ar
    29     7     8    1
    30     7     9   ar
    31     9    10   ar
    32    30    31    1
    33    31    32    1
    34    32    27    1
    35    10     1   ar
    36     9     3   ar
    37    25    20    1
    38    17    11   ar
    39    15    18    1
    40    15    19    1
@<TRIPOS>MOLECULE
*****
 36 40 0 0 0
SMALL
GASTEIGER

@<TRIPOS>ATOM
      1 C         140.9268  144.0835  161.6436 C.ar    1  UNL1        0.0967
      2 C         141.4063  142.6717  161.4798 C.ar    1  UNL1        0.0399
      3 C         141.2872  141.9847  162.8079 C.ar    1  UNL1        0.1165
      4 C         141.6109  140.5877  163.2479 C.ar    1  UNL1        0.1497
      5 N         141.3815  140.1780  164.6726 N.ar    1  UNL1       -0.2266
      6 C         140.8284  141.1652  165.6571 C.ar    1  UNL1        0.1141
      7 C         140.5047  142.5622  165.2171 C.ar    1  UNL1        0.1575
      8 CL        139.9516  143.5495  166.2017 Cl      1  UNL1       -0.0597
      9 N         140.7341  142.9720  163.7925 N.ar    1  UNL1       -0.2151
     10 N         140.5114  144.2691  163.0730 N.ar    1  UNL1       -0.1672
     11 C         140.5990  140.7555  167.0818 C.ar    1  UNL1        0.0585
     12 C         139.3036  140.1114  167.4776 C.ar    1  UNL1        0.1049
     13 N         139.0741  139.7016  168.9023 N.ar    1  UNL1       -0.2124
     14 C         140.1403  139.9362  169.9310 C.ar    1  UNL1        0.2137
     15 N         139.9109  139.5265  171.3556 N.pl3   1  UNL1       -0.3274
     16 N         141.4358  140.5804  169.5351 N.ar    1  UNL1       -0.2124
     17 C         141.6651  140.9900  168.1105 C.ar    1  UNL1        0.1049
     18 H         139.0607  139.1037  171.6155 H       1  UNL1        0.1452
     19 H         140.6107  139.6804  172.0308 H       1  UNL1        0.1452
     20 N         142.1640  139.6004  162.2633 N.pl3   1  UNL1       -0.2869
     21 C         143.5844  139.1344  162.3859 C.3     1  UNL1        0.1243
     22 C         144.1375  138.1471  161.4014 C.3     1  UNL1        0.1636
     23 O         143.2700  137.6259  160.2942 O.3     1  UNL1       -0.3501
     24 C         141.8495  138.0918  160.1716 C.3     1  UNL1        0.1636
     25 C         141.2965  139.0791  161.1562 C.3     1  UNL1        0.1243
     26 C         140.8724  145.1267  160.5671 C.3     1  UNL1        0.1206
     27 N         139.1009  144.1272  156.5530 N.3     1  UNL1       -0.1565
     28 C         139.8439  145.4161  156.7449 C.3     1  UNL1        0.1128
     29 C         140.4344  145.7491  158.0830 C.3     1  UNL1        0.0918
     30 N         140.2819  144.7935  159.2291 N.3     1  UNL1       -0.2651
     31 C         139.5388  143.5047  159.0371 C.3     1  UNL1        0.0918
     32 C         138.9483  143.1716  157.6990 C.3     1  UNL1        0.1128
     33 C         137.9198  143.4608  153.8770 C.3     1  UNL1        0.1960
     34 S         138.5104  143.7941  155.2150 S.O2    1  UNL1        0.0457
     35 O         139.4477  144.7647  154.5596 O.2     1  UNL1       -0.1572
     36 O         137.5731  142.8235  155.8703 O.2     1  UNL1       -0.1572
@<TRIPOS>BOND
     1    33    34    1
     2    34    35    2
     3    34    36    2
     4    34    27    1
     5    27    28    1
     6    28    29    1
     7    29    30    1
     8    30    26    1
     9    26     1    1
    10     1     2   ar
    11     2     3   ar
    12     3     4   ar
    13     4    20    1
    14    20    21    1
    15    21    22    1
    16    22    23    1
    17    23    24    1
    18    24    25    1
    19     4     5   ar
    20     5     6   ar
    21     6    11    1
    22    11    12   ar
    23    12    13   ar
    24    13    14   ar
    25    14    15    1
    26    14    16   ar
    27    16    17   ar
    28     6     7   ar
    29     7     8    1
    30     7     9   ar
    31     9    10   ar
    32    30    31    1
    33    31    32    1
    34    32    27    1
    35    10     1   ar
    36     9     3   ar
    37    25    20    1
    38    17    11   ar
    39    15    18    1
    40    15    19    1
@<TRIPOS>MOLECULE
*****
 36 40 0 0 0
SMALL
GASTEIGER

@<TRIPOS>ATOM
      1 C         142.3960  137.9301  157.0803 C.ar    1  UNL1        0.0967
      2 C         143.1800  139.1137  156.5962 C.ar    1  UNL1        0.0399
      3 C         143.5247  139.9594  157.7862 C.ar    1  UNL1        0.1165
      4 C         144.2848  141.2459  157.9169 C.ar    1  UNL1        0.1497
      5 N         144.4738  141.8715  159.2671 N.ar    1  UNL1       -0.2266
      6 C         143.9028  141.2105  160.4865 C.ar    1  UNL1        0.1141
      7 C         143.1428  139.9240  160.3558 C.ar    1  UNL1        0.1575
      8 CL        142.5718  139.2630  161.5753 Cl      1  UNL1       -0.0597
      9 N         142.9537  139.2984  159.0057 N.ar    1  UNL1       -0.2151
     10 N         142.2561  138.0442  158.5694 N.ar    1  UNL1       -0.1672
     11 C         144.0919  141.8361  161.8367 C.ar    1  UNL1        0.0585
     12 C         145.2905  141.4822  162.6661 C.ar    1  UNL1        0.1049
     13 N         145.4795  142.1077  164.0163 N.ar    1  UNL1       -0.2124
     14 C         144.4698  143.0872  164.5371 C.ar    1  UNL1        0.2137
     15 N         144.6588  143.7127  165.8872 N.pl3   1  UNL1       -0.3274
     16 N         143.2712  143.4411  163.7076 N.ar    1  UNL1       -0.2124
     17 C         143.0822  142.8156  162.3574 C.ar    1  UNL1        0.1049
     18 H         145.4455  143.4804  166.4316 H       1  UNL1        0.1452
     19 H         143.9961  144.3556  166.2290 H       1  UNL1        0.1452
     20 N         144.8558  141.9070  156.6974 N.pl3   1  UNL1       -0.2869
     21 C         143.9533  142.6393  155.7493 C.3     1  UNL1        0.1243
     22 C         144.5245  143.3003  154.5299 C.3     1  UNL1        0.1636
     23 O         145.9980  143.2289  154.2587 O.3     1  UNL1       -0.3501
     24 C         146.9005  142.4966  155.2069 C.3     1  UNL1        0.1636
     25 C         146.3294  141.8356  156.4263 C.3     1  UNL1        0.1243
     26 C         141.8480  136.8262  156.2253 C.3     1  UNL1        0.1206
     27 N         143.2125  132.5876  156.8759 N.3     1  UNL1       -0.1565
     28 C         142.1356  132.8835  155.8745 C.3     1  UNL1        0.1128
     29 C         141.6808  134.2964  155.6577 C.3     1  UNL1        0.0918
     30 N         142.3028  135.4134  156.4422 N.3     1  UNL1       -0.2651
     31 C         143.3797  135.1174  157.4436 C.3     1  UNL1        0.0918
     32 C         143.8345  133.7046  157.6604 C.3     1  UNL1        0.1128
     33 C         144.1223  129.7621  157.3097 C.3     1  UNL1        0.1960
     34 S         143.6673  131.1748  157.0928 S.O2    1  UNL1        0.0457
     35 O         142.5549  130.6820  156.2155 O.2     1  UNL1       -0.1572
     36 O         144.7798  131.6676  157.9701 O.2     1  UNL1       -0.1572
@<TRIPOS>BOND
     1    33    34    1
     2    34    35    2
     3    34    36    2
     4    34    27    1
     5    27    28    1
     6    28    29    1
     7    29    30    1
     8    30    26    1
     9    26     1    1
    10     1     2   ar
    11     2     3   ar
    12     3     4   ar
    13     4    20    1
    14    20    21    1
    15    21    22    1
    16    22    23    1
    17    23    24    1
    18    24    25    1
    19     4     5   ar
    20     5     6   ar
    21     6    11    1
    22    11    12   ar
    23    12    13   ar
    24    13    14   ar
    25    14    15    1
    26    14    16   ar
    27    16    17   ar
    28     6     7   ar
    29     7     8    1
    30     7     9   ar
    31     9    10   ar
    32    30    31    1
    33    31    32    1
    34    32    27    1
    35    10     1   ar
    36     9     3   ar
    37    25    20    1
    38    17    11   ar
    39    15    18    1
    40    15    19    1
