@<TRIPOS>MOLECULE
*****
 26 30 0 0 0
SMALL
GASTEIGER

@<TRIPOS>ATOM
      1 O         140.8673  143.4304  164.6091 O.2     1  UNL1       -0.2520
      2 C         141.0802  143.6274  163.1374 C.2     1  UNL1        0.3111
      3 N         140.1517  144.3411  162.2001 N.am    1  UNL1       -0.2606
      4 C         140.7565  144.3001  160.8279 C.3     1  UNL1        0.1169
      5 C         142.0588  143.5611  160.9174 C.3     1  UNL1        0.1213
      6 N         142.2588  143.1454  162.3447 N.am    1  UNL1       -0.2408
      7 C         143.4316  142.3817  162.8845 C.ar    1  UNL1        0.0622
      8 C         144.8756  142.7552  162.7253 C.ar    1  UNL1        0.0504
      9 S         145.7029  141.7148  163.4206 S.2     1  UNL1       -0.0851
     10 C         144.7700  140.6984  164.0095 C.ar    1  UNL1        0.0307
     11 C         145.0174  139.4508  164.8045 C.ar    1  UNL1        0.0065
     12 C         143.8611  138.6153  165.2683 C.ar    1  UNL1        0.0005
     13 C         142.4575  139.0275  164.9369 C.ar    1  UNL1        0.0001
     14 C         142.2101  140.2751  164.1418 C.ar    1  UNL1        0.0018
     15 C         143.3663  141.1106  163.6781 C.ar    1  UNL1        0.0202
     16 C         138.8474  144.9830  162.5698 C.3     1  UNL1        0.1123
     17 C         137.6957  144.1350  163.0220 C.3     1  UNL1        0.0944
     18 N         137.9185  142.6945  163.3758 N.3     1  UNL1       -0.2637
     19 C         137.9885  142.1279  164.7629 C.3     1  UNL1        0.0992
     20 C         138.2236  140.6508  164.6490 C.ar    1  UNL1       -0.0088
     21 C         138.3789  139.5764  165.6842 C.ar    1  UNL1       -0.0032
     22 C         138.6095  138.1557  165.2618 C.ar    1  UNL1       -0.0003
     23 C         138.6848  137.8094  163.8042 C.ar    1  UNL1       -0.0003
     24 C         138.5295  138.8838  162.7691 C.ar    1  UNL1       -0.0032
     25 C         138.2989  140.3045  163.1915 C.ar    1  UNL1       -0.0088
     26 C         138.1103  141.5675  162.4046 C.3     1  UNL1        0.0992
@<TRIPOS>BOND
     1     1     2    2
     2     2     3   am
     3     3    16    1
     4    16    17    1
     5    17    18    1
     6    18    19    1
     7    19    20    1
     8    20    21   ar
     9    21    22   ar
    10    22    23   ar
    11    23    24   ar
    12    24    25   ar
    13    25    26    1
    14     3     4    1
    15     4     5    1
    16     5     6    1
    17     6     7    1
    18     7     8   ar
    19     8     9   ar
    20     9    10   ar
    21    10    11   ar
    22    11    12   ar
    23    12    13   ar
    24    13    14   ar
    25    14    15   ar
    26     6     2   am
    27    15     7   ar
    28    26    18    1
    29    15    10   ar
    30    25    20   ar
@<TRIPOS>MOLECULE
*****
 26 30 0 0 0
SMALL
GASTEIGER

@<TRIPOS>ATOM
      1 O         142.3350  140.9298  162.5985 O.2     1  UNL1       -0.2520
      2 C         143.1510  141.9055  163.3937 C.2     1  UNL1        0.3111
      3 N         144.4869  141.6339  164.0192 N.am    1  UNL1       -0.2606
      4 C         144.9359  142.8847  164.7151 C.3     1  UNL1        0.1169
      5 C         143.8773  143.9293  164.5195 C.3     1  UNL1        0.1213
      6 N         142.7741  143.3241  163.7028 N.am    1  UNL1       -0.2408
      7 C         141.5153  144.0161  163.2712 C.ar    1  UNL1        0.0622
      8 C         141.4344  145.2526  162.4259 C.ar    1  UNL1        0.0504
      9 S         139.9854  145.5939  162.2412 S.2     1  UNL1       -0.0851
     10 C         139.1708  144.5683  162.9725 C.ar    1  UNL1        0.0307
     11 C         137.6903  144.3963  163.1409 C.ar    1  UNL1        0.0065
     12 C         137.1553  143.2492  163.9458 C.ar    1  UNL1        0.0005
     13 C         138.1008  142.2741  164.5824 C.ar    1  UNL1        0.0001
     14 C         139.5813  142.4461  164.4139 C.ar    1  UNL1        0.0018
     15 C         140.1164  143.5932  163.6090 C.ar    1  UNL1        0.0202
     16 C         145.2416  140.3389  163.9595 C.3     1  UNL1        0.1123
     17 C         144.7364  139.1413  164.7080 C.3     1  UNL1        0.0944
     18 N         143.2897  139.0539  165.0949 N.3     1  UNL1       -0.2637
     19 C         142.6264  139.8143  166.2048 C.3     1  UNL1        0.0992
     20 C         141.1791  139.4212  166.2356 C.ar    1  UNL1       -0.0088
     21 C         140.0419  139.8472  167.1160 C.ar    1  UNL1       -0.0032
     22 C         138.6736  139.2699  166.9056 C.ar    1  UNL1       -0.0003
     23 C         138.4424  138.2666  165.8147 C.ar    1  UNL1       -0.0003
     24 C         139.5796  137.8406  164.9343 C.ar    1  UNL1       -0.0032
     25 C         140.9480  138.4179  165.1447 C.ar    1  UNL1       -0.0088
     26 C         142.2524  138.1909  164.4398 C.3     1  UNL1        0.0992
@<TRIPOS>BOND
     1     1     2    2
     2     2     3   am
     3     3    16    1
     4    16    17    1
     5    17    18    1
     6    18    19    1
     7    19    20    1
     8    20    21   ar
     9    21    22   ar
    10    22    23   ar
    11    23    24   ar
    12    24    25   ar
    13    25    26    1
    14     3     4    1
    15     4     5    1
    16     5     6    1
    17     6     7    1
    18     7     8   ar
    19     8     9   ar
    20     9    10   ar
    21    10    11   ar
    22    11    12   ar
    23    12    13   ar
    24    13    14   ar
    25    14    15   ar
    26     6     2   am
    27    15     7   ar
    28    26    18    1
    29    15    10   ar
    30    25    20   ar
@<TRIPOS>MOLECULE
*****
 26 30 0 0 0
SMALL
GASTEIGER

@<TRIPOS>ATOM
      1 O         142.7783  142.2504  164.9596 O.2     1  UNL1       -0.2520
      2 C         143.3539  142.3624  163.5790 C.2     1  UNL1        0.3111
      3 N         144.6368  141.7457  163.1059 N.am    1  UNL1       -0.2606
      4 C         144.8235  142.1130  161.6635 C.3     1  UNL1        0.1169
      5 C         143.6559  142.9568  161.2453 C.3     1  UNL1        0.1213
      6 N         142.7477  143.1109  162.4291 N.am    1  UNL1       -0.2408
      7 C         141.4595  143.8788  162.4579 C.ar    1  UNL1        0.0622
      8 C         141.2685  145.2975  162.0098 C.ar    1  UNL1        0.0504
      9 S         139.8271  145.6584  162.2148 S.2     1  UNL1       -0.0851
     10 C         139.1271  144.4626  162.7896 C.ar    1  UNL1        0.0307
     11 C         137.7015  144.2331  163.1956 C.ar    1  UNL1        0.0065
     12 C         137.2848  142.9039  163.7518 C.ar    1  UNL1        0.0005
     13 C         138.2936  141.8041  163.9020 C.ar    1  UNL1        0.0001
     14 C         139.7192  142.0336  163.4960 C.ar    1  UNL1        0.0018
     15 C         140.1360  143.3628  162.9398 C.ar    1  UNL1        0.0202
     16 C         145.5693  140.9086  163.9303 C.3     1  UNL1        0.1123
     17 C         145.1722  139.5194  164.3335 C.3     1  UNL1        0.0944
     18 N         143.7424  139.0829  164.2115 N.3     1  UNL1       -0.2637
     19 C         143.0558  138.6550  162.9484 C.3     1  UNL1        0.0992
     20 C         141.6371  138.3052  163.2874 C.ar    1  UNL1       -0.0088
     21 C         140.4940  137.8213  162.4454 C.ar    1  UNL1       -0.0032
     22 C         139.1606  137.5490  163.0761 C.ar    1  UNL1       -0.0003
     23 C         138.9703  137.7607  164.5488 C.ar    1  UNL1       -0.0003
     24 C         140.1134  138.2446  165.3909 C.ar    1  UNL1       -0.0032
     25 C         141.4469  138.5169  164.7602 C.ar    1  UNL1       -0.0088
     26 C         142.7480  138.9975  165.3313 C.3     1  UNL1        0.0992
@<TRIPOS>BOND
     1     1     2    2
     2     2     3   am
     3     3    16    1
     4    16    17    1
     5    17    18    1
     6    18    19    1
     7    19    20    1
     8    20    21   ar
     9    21    22   ar
    10    22    23   ar
    11    23    24   ar
    12    24    25   ar
    13    25    26    1
    14     3     4    1
    15     4     5    1
    16     5     6    1
    17     6     7    1
    18     7     8   ar
    19     8     9   ar
    20     9    10   ar
    21    10    11   ar
    22    11    12   ar
    23    12    13   ar
    24    13    14   ar
    25    14    15   ar
    26     6     2   am
    27    15     7   ar
    28    26    18    1
    29    15    10   ar
    30    25    20   ar
@<TRIPOS>MOLECULE
*****
 26 30 0 0 0
SMALL
GASTEIGER

@<TRIPOS>ATOM
      1 O         141.1429  140.0461  161.6483 O.2     1  UNL1       -0.2520
      2 C         141.4008  139.2019  162.8611 C.2     1  UNL1        0.3111
      3 N         140.6464  137.9656  163.2514 N.am    1  UNL1       -0.2606
      4 C         141.2377  137.4454  164.5281 C.3     1  UNL1        0.1169
      5 C         142.3577  138.3603  164.9267 C.3     1  UNL1        0.1213
      6 N         142.4585  139.4458  163.8964 N.am    1  UNL1       -0.2408
      7 C         143.4439  140.5767  163.9008 C.ar    1  UNL1        0.0622
      8 C         144.9380  140.4441  163.9031 C.ar    1  UNL1        0.0504
      9 S         145.5259  141.8241  163.9074 S.2     1  UNL1       -0.0851
     10 C         144.3949  142.8096  163.9076 C.ar    1  UNL1        0.0307
     11 C         144.3706  144.3094  163.9110 C.ar    1  UNL1        0.0065
     12 C         143.0596  145.0382  163.9104 C.ar    1  UNL1        0.0005
     13 C         141.7729  144.2673  163.9063 C.ar    1  UNL1        0.0001
     14 C         141.7973  142.7675  163.9029 C.ar    1  UNL1        0.0018
     15 C         143.1083  142.0386  163.9035 C.ar    1  UNL1        0.0202
     16 C         139.5015  137.3565  162.4976 C.3     1  UNL1        0.1123
     17 C         138.2022  138.0967  162.3803 C.3     1  UNL1        0.0944
     18 N         138.1416  139.5608  162.7006 N.3     1  UNL1       -0.2637
     19 C         138.1825  140.1656  164.0727 C.3     1  UNL1        0.0992
     20 C         138.0956  141.6558  163.9252 C.ar    1  UNL1       -0.0088
     21 C         138.0904  142.7656  164.9343 C.ar    1  UNL1       -0.0032
     22 C         137.9905  144.1917  164.4801 C.ar    1  UNL1       -0.0003
     23 C         137.8958  144.5079  163.0169 C.ar    1  UNL1       -0.0003
     24 C         137.9009  143.3981  162.0079 C.ar    1  UNL1       -0.0032
     25 C         138.0008  141.9720  162.4620 C.ar    1  UNL1       -0.0088
     26 C         138.0293  140.6773  161.7052 C.3     1  UNL1        0.0992
@<TRIPOS>BOND
     1     1     2    2
     2     2     3   am
     3     3    16    1
     4    16    17    1
     5    17    18    1
     6    18    19    1
     7    19    20    1
     8    20    21   ar
     9    21    22   ar
    10    22    23   ar
    11    23    24   ar
    12    24    25   ar
    13    25    26    1
    14     3     4    1
    15     4     5    1
    16     5     6    1
    17     6     7    1
    18     7     8   ar
    19     8     9   ar
    20     9    10   ar
    21    10    11   ar
    22    11    12   ar
    23    12    13   ar
    24    13    14   ar
    25    14    15   ar
    26     6     2   am
    27    15     7   ar
    28    26    18    1
    29    15    10   ar
    30    25    20   ar
@<TRIPOS>MOLECULE
*****
 26 30 0 0 0
SMALL
GASTEIGER

@<TRIPOS>ATOM
      1 O         141.1227  140.3951  160.9686 O.2     1  UNL1       -0.2520
      2 C         142.3936  141.1010  161.3380 C.2     1  UNL1        0.3111
      3 N         143.7686  140.5014  161.3335 N.am    1  UNL1       -0.2606
      4 C         144.7375  141.5603  161.7695 C.3     1  UNL1        0.1169
      5 C         143.9613  142.8143  162.0435 C.3     1  UNL1        0.1213
      6 N         142.5127  142.5304  161.7768 N.am    1  UNL1       -0.2408
      7 C         141.3819  143.5049  161.9232 C.ar    1  UNL1        0.0622
      8 C         141.2607  144.8264  161.2239 C.ar    1  UNL1        0.0504
      9 S         139.9776  145.4674  161.6630 S.2     1  UNL1       -0.0851
     10 C         139.3057  144.5419  162.6338 C.ar    1  UNL1        0.0307
     11 C         138.0159  144.6469  163.3921 C.ar    1  UNL1        0.0065
     12 C         137.5938  143.5392  164.3111 C.ar    1  UNL1        0.0005
     13 C         138.4616  142.3264  164.4719 C.ar    1  UNL1        0.0001
     14 C         139.7516  142.2214  163.7136 C.ar    1  UNL1        0.0018
     15 C         140.1736  143.3291  162.7945 C.ar    1  UNL1        0.0202
     16 C         144.1140  139.0906  160.9588 C.3     1  UNL1        0.1123
     17 C         143.7186  137.9574  161.8584 C.3     1  UNL1        0.0944
     18 N         142.6082  138.1395  162.8503 N.3     1  UNL1       -0.2637
     19 C         142.6780  138.9447  164.1140 C.3     1  UNL1        0.0992
     20 C         141.3460  138.8513  164.7973 C.ar    1  UNL1       -0.0088
     21 C         140.8309  139.4405  166.0770 C.ar    1  UNL1       -0.0032
     22 C         139.4227  139.1668  166.5153 C.ar    1  UNL1       -0.0003
     23 C         138.5297  138.3038  165.6740 C.ar    1  UNL1       -0.0003
     24 C         139.0448  137.7146  164.3944 C.ar    1  UNL1       -0.0032
     25 C         140.4529  137.9883  163.9560 C.ar    1  UNL1       -0.0088
     26 C         141.2330  137.5485  162.7527 C.3     1  UNL1        0.0992
@<TRIPOS>BOND
     1     1     2    2
     2     2     3   am
     3     3    16    1
     4    16    17    1
     5    17    18    1
     6    18    19    1
     7    19    20    1
     8    20    21   ar
     9    21    22   ar
    10    22    23   ar
    11    23    24   ar
    12    24    25   ar
    13    25    26    1
    14     3     4    1
    15     4     5    1
    16     5     6    1
    17     6     7    1
    18     7     8   ar
    19     8     9   ar
    20     9    10   ar
    21    10    11   ar
    22    11    12   ar
    23    12    13   ar
    24    13    14   ar
    25    14    15   ar
    26     6     2   am
    27    15     7   ar
    28    26    18    1
    29    15    10   ar
    30    25    20   ar
@<TRIPOS>MOLECULE
*****
 26 30 0 0 0
SMALL
GASTEIGER

@<TRIPOS>ATOM
      1 O         139.2882  142.5484  165.4865 O.2     1  UNL1       -0.2520
      2 C         139.0738  141.0665  165.3969 C.2     1  UNL1        0.3111
      3 N         138.5979  140.3160  164.1885 N.am    1  UNL1       -0.2606
      4 C         138.5276  138.8605  164.5447 C.3     1  UNL1        0.1169
      5 C         138.9601  138.7116  165.9733 C.3     1  UNL1        0.1213
      6 N         139.2976  140.0750  166.5000 N.am    1  UNL1       -0.2408
      7 C         139.7752  140.3912  167.8862 C.ar    1  UNL1        0.0622
      8 C         139.0549  140.0688  169.1618 C.ar    1  UNL1        0.0504
      9 S         139.8913  140.5636  170.3044 S.2     1  UNL1       -0.0851
     10 C         141.1287  141.1919  169.7349 C.ar    1  UNL1        0.0307
     11 C         142.3115  141.8473  170.3840 C.ar    1  UNL1        0.0065
     12 C         143.4225  142.3961  169.5387 C.ar    1  UNL1        0.0005
     13 C         143.3507  142.2895  168.0443 C.ar    1  UNL1        0.0001
     14 C         142.1679  141.6341  167.3951 C.ar    1  UNL1        0.0018
     15 C         141.0569  141.0853  168.2404 C.ar    1  UNL1        0.0202
     16 C         138.2528  140.9156  162.8575 C.3     1  UNL1        0.1123
     17 C         139.3427  141.3998  161.9478 C.3     1  UNL1        0.0944
     18 N         140.7626  141.4337  162.4303 N.3     1  UNL1       -0.2637
     19 C         141.6916  140.2595  162.5201 C.3     1  UNL1        0.0992
     20 C         143.0059  140.7478  163.0530 C.ar    1  UNL1       -0.0088
     21 C         144.2939  140.0391  163.3511 C.ar    1  UNL1       -0.0032
     22 C         145.4651  140.8066  163.8888 C.ar    1  UNL1       -0.0003
     23 C         145.3484  142.2827  164.1285 C.ar    1  UNL1       -0.0003
     24 C         144.0605  142.9914  163.8304 C.ar    1  UNL1       -0.0032
     25 C         142.8892  142.2239  163.2927 C.ar    1  UNL1       -0.0088
     26 C         141.5028  142.6478  162.9079 C.3     1  UNL1        0.0992
@<TRIPOS>BOND
     1     1     2    2
     2     2     3   am
     3     3    16    1
     4    16    17    1
     5    17    18    1
     6    18    19    1
     7    19    20    1
     8    20    21   ar
     9    21    22   ar
    10    22    23   ar
    11    23    24   ar
    12    24    25   ar
    13    25    26    1
    14     3     4    1
    15     4     5    1
    16     5     6    1
    17     6     7    1
    18     7     8   ar
    19     8     9   ar
    20     9    10   ar
    21    10    11   ar
    22    11    12   ar
    23    12    13   ar
    24    13    14   ar
    25    14    15   ar
    26     6     2   am
    27    15     7   ar
    28    26    18    1
    29    15    10   ar
    30    25    20   ar
@<TRIPOS>MOLECULE
*****
 26 30 0 0 0
SMALL
GASTEIGER

@<TRIPOS>ATOM
      1 O         141.1204  140.0150  162.1540 O.2     1  UNL1       -0.2520
      2 C         139.7460  140.5911  162.3244 C.2     1  UNL1        0.3111
      3 N         138.4735  139.8095  162.4644 N.am    1  UNL1       -0.2606
      4 C         137.3438  140.7854  162.6112 C.3     1  UNL1        0.1169
      5 C         137.9182  142.1702  162.5618 C.3     1  UNL1        0.1213
      6 N         139.4029  142.0501  162.3845 N.am    1  UNL1       -0.2408
      7 C         140.3738  143.1891  162.2849 C.ar    1  UNL1        0.0622
      8 C         140.3247  144.3044  161.2831 C.ar    1  UNL1        0.0504
      9 S         141.4849  145.2174  161.5486 S.2     1  UNL1       -0.0851
     10 C         142.2510  144.6663  162.7146 C.ar    1  UNL1        0.0307
     11 C         143.4852  145.1440  163.4207 C.ar    1  UNL1        0.0065
     12 C         144.0327  144.3681  164.5818 C.ar    1  UNL1        0.0005
     13 C         143.3460  143.1146  165.0369 C.ar    1  UNL1        0.0001
     14 C         142.1118  142.6369  164.3308 C.ar    1  UNL1        0.0018
     15 C         141.5643  143.4128  163.1696 C.ar    1  UNL1        0.0202
     16 C         138.3519  138.3144  162.4588 C.3     1  UNL1        0.1123
     17 C         138.8719  137.5153  163.6167 C.3     1  UNL1        0.0944
     18 N         139.5072  138.2116  164.7836 N.3     1  UNL1       -0.2637
     19 C         138.7816  138.9017  165.9003 C.3     1  UNL1        0.0992
     20 C         139.8056  139.4567  166.8455 C.ar    1  UNL1       -0.0088
     21 C         139.6765  140.2333  168.1223 C.ar    1  UNL1       -0.0032
     22 C         140.9060  140.6628  168.8664 C.ar    1  UNL1       -0.0003
     23 C         142.2647  140.3158  168.3337 C.ar    1  UNL1       -0.0003
     24 C         142.3938  139.5392  167.0569 C.ar    1  UNL1       -0.0032
     25 C         141.1642  139.1097  166.3128 C.ar    1  UNL1       -0.0088
     26 C         140.9798  138.3402  165.0385 C.3     1  UNL1        0.0992
@<TRIPOS>BOND
     1     1     2    2
     2     2     3   am
     3     3    16    1
     4    16    17    1
     5    17    18    1
     6    18    19    1
     7    19    20    1
     8    20    21   ar
     9    21    22   ar
    10    22    23   ar
    11    23    24   ar
    12    24    25   ar
    13    25    26    1
    14     3     4    1
    15     4     5    1
    16     5     6    1
    17     6     7    1
    18     7     8   ar
    19     8     9   ar
    20     9    10   ar
    21    10    11   ar
    22    11    12   ar
    23    12    13   ar
    24    13    14   ar
    25    14    15   ar
    26     6     2   am
    27    15     7   ar
    28    26    18    1
    29    15    10   ar
    30    25    20   ar
@<TRIPOS>MOLECULE
*****
 26 30 0 0 0
SMALL
GASTEIGER

@<TRIPOS>ATOM
      1 O         140.3735  141.2600  160.5683 O.2     1  UNL1       -0.2520
      2 C         141.8214  141.1979  160.9553 C.2     1  UNL1        0.3111
      3 N         142.9186  142.0607  160.4061 N.am    1  UNL1       -0.2606
      4 C         144.2016  141.6582  161.0709 C.3     1  UNL1        0.1169
      5 C         143.8972  140.5465  162.0310 C.3     1  UNL1        0.1213
      6 N         142.4262  140.2621  161.9595 N.am    1  UNL1       -0.2408
      7 C         141.6894  139.2241  162.7530 C.ar    1  UNL1        0.0622
      8 C         141.9656  137.7497  162.7473 C.ar    1  UNL1        0.0504
      9 S         140.9940  137.0925  163.6823 S.2     1  UNL1       -0.0851
     10 C         140.1173  138.1607  164.2657 C.ar    1  UNL1        0.0307
     11 C         138.9832  138.1040  165.2457 C.ar    1  UNL1        0.0065
     12 C         138.2788  139.3647  165.6514 C.ar    1  UNL1        0.0005
     13 C         138.7086  140.6820  165.0771 C.ar    1  UNL1        0.0001
     14 C         139.8427  140.7387  164.0971 C.ar    1  UNL1        0.0018
     15 C         140.5471  139.4780  163.6914 C.ar    1  UNL1        0.0202
     16 C         142.7606  143.1372  159.3735 C.3     1  UNL1        0.1123
     17 C         141.9155  144.3409  159.6681 C.3     1  UNL1        0.0944
     18 N         141.0644  144.3758  160.9028 N.3     1  UNL1       -0.2637
     19 C         141.5501  144.6122  162.3021 C.3     1  UNL1        0.0992
     20 C         140.3641  144.5630  163.2191 C.ar    1  UNL1       -0.0088
     21 C         140.2364  144.7266  164.7046 C.ar    1  UNL1       -0.0032
     22 C         138.8900  144.6234  165.3575 C.ar    1  UNL1       -0.0003
     23 C         137.6712  144.3565  164.5249 C.ar    1  UNL1       -0.0003
     24 C         137.7988  144.1929  163.0394 C.ar    1  UNL1       -0.0032
     25 C         139.1453  144.2961  162.3864 C.ar    1  UNL1       -0.0088
     26 C         139.5781  144.1804  160.9549 C.3     1  UNL1        0.0992
@<TRIPOS>BOND
     1     1     2    2
     2     2     3   am
     3     3    16    1
     4    16    17    1
     5    17    18    1
     6    18    19    1
     7    19    20    1
     8    20    21   ar
     9    21    22   ar
    10    22    23   ar
    11    23    24   ar
    12    24    25   ar
    13    25    26    1
    14     3     4    1
    15     4     5    1
    16     5     6    1
    17     6     7    1
    18     7     8   ar
    19     8     9   ar
    20     9    10   ar
    21    10    11   ar
    22    11    12   ar
    23    12    13   ar
    24    13    14   ar
    25    14    15   ar
    26     6     2   am
    27    15     7   ar
    28    26    18    1
    29    15    10   ar
    30    25    20   ar
@<TRIPOS>MOLECULE
*****
 26 30 0 0 0
SMALL
GASTEIGER

@<TRIPOS>ATOM
      1 O         141.2310  139.6662  160.1533 O.2     1  UNL1       -0.2520
      2 C         140.9585  141.1396  160.2240 C.2     1  UNL1        0.3111
      3 N         139.7951  141.8520  159.6002 N.am    1  UNL1       -0.2606
      4 C         139.9191  143.3119  159.9216 C.3     1  UNL1        0.1169
      5 C         141.1592  143.5017  160.7439 C.3     1  UNL1        0.1213
      6 N         141.8016  142.1592  160.9308 N.am    1  UNL1       -0.2408
      7 C         143.0650  141.8845  161.6910 C.ar    1  UNL1        0.0622
      8 C         144.3862  142.5628  161.4799 C.ar    1  UNL1        0.0504
      9 S         145.3670  141.9809  162.4542 S.2     1  UNL1       -0.0851
     10 C         144.6520  140.9429  163.2676 C.ar    1  UNL1        0.0307
     11 C         145.1126  140.0443  164.3767 C.ar    1  UNL1        0.0065
     12 C         144.1506  139.0862  165.0142 C.ar    1  UNL1        0.0005
     13 C         142.7280  139.0266  164.5426 C.ar    1  UNL1        0.0001
     14 C         142.2674  139.9252  163.4334 C.ar    1  UNL1        0.0018
     15 C         143.2294  140.8834  162.7959 C.ar    1  UNL1        0.0202
     16 C         138.6999  141.2161  158.7963 C.3     1  UNL1        0.1123
     17 C         137.7349  140.2758  159.4553 C.3     1  UNL1        0.0944
     18 N         137.9471  139.8608  160.8810 N.3     1  UNL1       -0.2637
     19 C         137.7430  140.7243  162.0904 C.3     1  UNL1        0.0992
     20 C         138.0704  139.9066  163.3046 C.ar    1  UNL1       -0.0088
     21 C         138.0510  140.2317  164.7687 C.ar    1  UNL1       -0.0032
     22 C         138.4380  139.1879  165.7740 C.ar    1  UNL1       -0.0003
     23 C         138.8446  137.8189  165.3150 C.ar    1  UNL1       -0.0003
     24 C         138.8641  137.4938  163.8508 C.ar    1  UNL1       -0.0032
     25 C         138.4770  138.5377  162.8456 C.ar    1  UNL1       -0.0088
     26 C         138.4008  138.5094  161.3478 C.3     1  UNL1        0.0992
@<TRIPOS>BOND
     1     1     2    2
     2     2     3   am
     3     3    16    1
     4    16    17    1
     5    17    18    1
     6    18    19    1
     7    19    20    1
     8    20    21   ar
     9    21    22   ar
    10    22    23   ar
    11    23    24   ar
    12    24    25   ar
    13    25    26    1
    14     3     4    1
    15     4     5    1
    16     5     6    1
    17     6     7    1
    18     7     8   ar
    19     8     9   ar
    20     9    10   ar
    21    10    11   ar
    22    11    12   ar
    23    12    13   ar
    24    13    14   ar
    25    14    15   ar
    26     6     2   am
    27    15     7   ar
    28    26    18    1
    29    15    10   ar
    30    25    20   ar
