@<TRIPOS>MOLECULE
*****
 35 40 0 0 0
SMALL
GASTEIGER

@<TRIPOS>ATOM
      1 C         140.0680  141.6570  165.5573 C.ar    1  UNL1        0.0908
      2 C         140.6190  141.0390  166.8080 C.ar    1  UNL1        0.1496
      3 O         140.3673  139.5616  166.7446 O.2     1  UNL1       -0.4534
      4 C         139.6606  139.2666  165.4548 C.ar    1  UNL1        0.1454
      5 C         139.1617  137.9861  164.8537 C.ar    1  UNL1        0.0406
      6 C         138.4778  138.0007  163.5188 C.ar    1  UNL1        0.0395
      7 C         138.2928  139.2958  162.7850 C.ar    1  UNL1        0.1311
      8 O         137.6089  139.3103  161.4500 O.3     1  UNL1       -0.5058
      9 C         138.7917  140.5763  163.3860 C.ar    1  UNL1        0.0308
     10 C         139.4756  140.5617  164.7210 C.ar    1  UNL1        0.0421
     11 H         137.2972  138.5104  161.0745 H       1  UNL1        0.2922
     12 C         141.3019  141.7699  167.9257 C.ar    1  UNL1        0.0349
     13 C         140.5185  142.7029  168.8008 C.ar    1  UNL1        0.0061
     14 C         141.2014  143.4338  169.9185 C.ar    1  UNL1        0.0367
     15 C         142.6678  143.2317  170.1613 C.ar    1  UNL1        0.1337
     16 O         143.3507  143.9626  171.2790 O.3     1  UNL1       -0.5055
     17 C         143.4512  142.2987  169.2863 C.ar    1  UNL1        0.0367
     18 C         142.7683  141.5678  168.1685 C.ar    1  UNL1        0.0061
     19 H         142.8613  144.5454  171.8256 H       1  UNL1        0.2922
     20 O         138.9495  144.0020  165.5675 O.2     1  UNL1       -0.2698
     21 C         140.1031  143.1146  165.2047 C.2     1  UNL1        0.2522
     22 N         141.2919  143.6848  164.4893 N.am    1  UNL1       -0.2703
     23 C         141.6758  145.0453  163.9876 C.3     1  UNL1        0.1307
     24 C         142.9730  144.4911  163.4776 C.3     1  UNL1        0.2003
     25 F         144.1618  145.0612  162.7621 F       1  UNL1       -0.2336
     26 C         142.5891  143.1306  163.9792 C.3     1  UNL1        0.1307
     27 C         138.6068  141.8714  162.6522 C.3     1  UNL1        0.1023
     28 N         139.6751  142.3659  161.7226 N.3     1  UNL1       -0.2687
     29 C         140.8035  141.5511  161.1633 C.3     1  UNL1        0.0726
     30 C         141.6284  142.4436  160.2841 C.3     1  UNL1        0.0235
     31 C         141.0098  143.8101  160.3000 C.3     1  UNL1        0.0707
     32 C         140.5659  145.2369  160.1703 C.3     1  UNL1        0.1458
     33 O         141.7178  145.5116  159.2496 O.3     1  UNL1       -0.3535
     34 C         142.1617  144.0847  159.3794 C.3     1  UNL1        0.1458
     35 C         139.8025  143.7620  161.1891 C.3     1  UNL1        0.0772
@<TRIPOS>BOND
     1    20    21    2
     2    21     1    1
     3     1     2   ar
     4     2    12    1
     5    12    13   ar
     6    13    14   ar
     7    14    15   ar
     8    15    16    1
     9    15    17   ar
    10    17    18   ar
    11     2     3   ar
    12     3     4   ar
    13     4     5   ar
    14     5     6   ar
    15     6     7   ar
    16     7     8    1
    17     7     9   ar
    18     9    27    1
    19    27    28    1
    20    28    29    1
    21    29    30    1
    22    30    31    1
    23    31    32    1
    24    32    33    1
    25    33    34    1
    26    31    35    1
    27     9    10   ar
    28    21    22   am
    29    22    23    1
    30    23    24    1
    31    24    25    1
    32    24    26    1
    33    10     1   ar
    34    26    22    1
    35    18    12   ar
    36    10     4   ar
    37    35    28    1
    38    34    31    1
    39    16    19    1
    40     8    11    1
@<TRIPOS>MOLECULE
*****
 35 40 0 0 0
SMALL
GASTEIGER

@<TRIPOS>ATOM
      1 C         140.3078  141.3359  165.7113 C.ar    1  UNL1        0.0908
      2 C         140.6136  142.0090  167.0164 C.ar    1  UNL1        0.1496
      3 O         139.9870  143.3717  166.9931 O.2     1  UNL1       -0.4534
      4 C         139.2939  143.5407  165.6736 C.ar    1  UNL1        0.1454
      5 C         138.5079  144.6777  165.0911 C.ar    1  UNL1        0.0406
      6 C         137.9201  144.5566  163.7164 C.ar    1  UNL1        0.0395
      7 C         138.1184  143.2984  162.9242 C.ar    1  UNL1        0.1311
      8 O         137.5306  143.1772  161.5494 O.3     1  UNL1       -0.5058
      9 C         138.9045  142.1613  163.5067 C.ar    1  UNL1        0.0308
     10 C         139.4922  142.2825  164.8814 C.ar    1  UNL1        0.0421
     11 H         137.0396  143.8875  161.1856 H       1  UNL1        0.2922
     12 C         141.4068  141.4225  168.1464 C.ar    1  UNL1        0.0349
     13 C         140.9799  140.1262  168.7688 C.ar    1  UNL1        0.0061
     14 C         141.7731  139.5397  169.8988 C.ar    1  UNL1        0.0367
     15 C         142.9931  140.2495  170.4064 C.ar    1  UNL1        0.1337
     16 O         143.7862  139.6630  171.5364 O.3     1  UNL1       -0.5055
     17 C         143.4199  141.5458  169.7840 C.ar    1  UNL1        0.0367
     18 C         142.6268  142.1323  168.6540 C.ar    1  UNL1        0.0061
     19 H         143.5196  138.8532  171.9252 H       1  UNL1        0.2922
     20 O         139.7324  138.8527  165.2091 O.2     1  UNL1       -0.2698
     21 C         140.7415  139.9581  165.3070 C.2     1  UNL1        0.2522
     22 N         142.1844  139.6856  165.0005 N.am    1  UNL1       -0.2703
     23 C         142.9697  138.4792  164.5789 C.3     1  UNL1        0.1307
     24 C         144.2249  139.3004  164.5672 C.3     1  UNL1        0.2003
     25 F         145.6679  139.0279  164.2608 F       1  UNL1       -0.2336
     26 C         143.4396  140.5068  164.9889 C.3     1  UNL1        0.1307
     27 C         139.1027  140.9032  162.7144 C.3     1  UNL1        0.1023
     28 N         140.4435  140.5975  162.1153 N.3     1  UNL1       -0.2687
     29 C         141.5563  141.5795  161.8972 C.3     1  UNL1        0.0726
     30 C         142.7074  140.8452  161.2762 C.3     1  UNL1        0.0235
     31 C         142.3062  139.4093  161.1105 C.3     1  UNL1        0.0707
     32 C         142.1195  137.9435  160.8532 C.3     1  UNL1        0.1458
     33 O         143.5066  137.8662  160.2874 O.3     1  UNL1       -0.3535
     34 C         143.6931  139.3321  160.5447 C.3     1  UNL1        0.1458
     35 C         140.9069  139.2563  161.6292 C.3     1  UNL1        0.0772
@<TRIPOS>BOND
     1    20    21    2
     2    21     1    1
     3     1     2   ar
     4     2    12    1
     5    12    13   ar
     6    13    14   ar
     7    14    15   ar
     8    15    16    1
     9    15    17   ar
    10    17    18   ar
    11     2     3   ar
    12     3     4   ar
    13     4     5   ar
    14     5     6   ar
    15     6     7   ar
    16     7     8    1
    17     7     9   ar
    18     9    27    1
    19    27    28    1
    20    28    29    1
    21    29    30    1
    22    30    31    1
    23    31    32    1
    24    32    33    1
    25    33    34    1
    26    31    35    1
    27     9    10   ar
    28    21    22   am
    29    22    23    1
    30    23    24    1
    31    24    25    1
    32    24    26    1
    33    10     1   ar
    34    26    22    1
    35    18    12   ar
    36    10     4   ar
    37    35    28    1
    38    34    31    1
    39    16    19    1
    40     8    11    1
@<TRIPOS>MOLECULE
*****
 35 40 0 0 0
SMALL
GASTEIGER

@<TRIPOS>ATOM
      1 C         141.2821  142.5055  165.5519 C.ar    1  UNL1        0.0908
      2 C         142.1712  142.3854  166.7540 C.ar    1  UNL1        0.1496
      3 O         143.5353  142.8792  166.3726 O.2     1  UNL1       -0.4534
      4 C         143.4892  143.3044  164.9349 C.ar    1  UNL1        0.1454
      5 C         144.5353  143.8721  164.0221 C.ar    1  UNL1        0.0406
      6 C         144.1889  144.2089  162.6021 C.ar    1  UNL1        0.0395
      7 C         142.7963  143.9779  162.0948 C.ar    1  UNL1        0.1311
      8 O         142.4498  144.3147  160.6747 O.3     1  UNL1       -0.5058
      9 C         141.7501  143.4102  163.0076 C.ar    1  UNL1        0.0308
     10 C         142.0966  143.0735  164.4277 C.ar    1  UNL1        0.0421
     11 H         143.1033  144.6693  160.1045 H       1  UNL1        0.2922
     12 C         141.7673  141.8632  168.1009 C.ar    1  UNL1        0.0349
     13 C         142.1949  140.4919  168.5327 C.ar    1  UNL1        0.0061
     14 C         141.7909  139.9697  169.8796 C.ar    1  UNL1        0.0367
     15 C         140.9593  140.8188  170.7947 C.ar    1  UNL1        0.1337
     16 O         140.5554  140.2966  172.1415 O.3     1  UNL1       -0.5055
     17 C         140.5317  142.1901  170.3628 C.ar    1  UNL1        0.0367
     18 C         140.9357  142.7123  169.0159 C.ar    1  UNL1        0.0061
     19 H         140.8225  139.4400  172.4113 H       1  UNL1        0.2922
     20 O         138.7813  143.1892  165.3830 O.2     1  UNL1       -0.2698
     21 C         139.8328  142.1245  165.4857 C.2     1  UNL1        0.2522
     22 N         139.4350  140.6785  165.5222 N.am    1  UNL1       -0.2703
     23 C         138.1327  139.9354  165.4791 C.3     1  UNL1        0.1307
     24 C         138.8725  138.6339  165.5739 C.3     1  UNL1        0.2003
     25 F         138.4747  137.1880  165.6104 F       1  UNL1       -0.2336
     26 C         140.1747  139.3771  165.6170 C.3     1  UNL1        0.1307
     27 C         140.3575  143.1792  162.5004 C.3     1  UNL1        0.1023
     28 N         139.8732  141.7822  162.2481 N.3     1  UNL1       -0.2687
     29 C         138.4527  141.3743  161.9912 C.3     1  UNL1        0.0726
     30 C         138.4260  139.8877  161.7928 C.3     1  UNL1        0.0235
     31 C         139.8299  139.3768  161.9271 C.3     1  UNL1        0.0707
     32 C         141.1408  138.6537  162.0202 C.3     1  UNL1        0.1458
     33 O         140.4429  137.3537  161.7501 O.3     1  UNL1       -0.3535
     34 C         139.1320  138.0769  161.6569 C.3     1  UNL1        0.1458
     35 C         140.7244  140.5477  162.2085 C.3     1  UNL1        0.0772
@<TRIPOS>BOND
     1    20    21    2
     2    21     1    1
     3     1     2   ar
     4     2    12    1
     5    12    13   ar
     6    13    14   ar
     7    14    15   ar
     8    15    16    1
     9    15    17   ar
    10    17    18   ar
    11     2     3   ar
    12     3     4   ar
    13     4     5   ar
    14     5     6   ar
    15     6     7   ar
    16     7     8    1
    17     7     9   ar
    18     9    27    1
    19    27    28    1
    20    28    29    1
    21    29    30    1
    22    30    31    1
    23    31    32    1
    24    32    33    1
    25    33    34    1
    26    31    35    1
    27     9    10   ar
    28    21    22   am
    29    22    23    1
    30    23    24    1
    31    24    25    1
    32    24    26    1
    33    10     1   ar
    34    26    22    1
    35    18    12   ar
    36    10     4   ar
    37    35    28    1
    38    34    31    1
    39    16    19    1
    40     8    11    1
@<TRIPOS>MOLECULE
*****
 35 40 0 0 0
SMALL
GASTEIGER

@<TRIPOS>ATOM
      1 C         142.2359  142.9441  165.2434 C.ar    1  UNL1        0.0908
      2 C         141.4850  142.6296  166.5032 C.ar    1  UNL1        0.1496
      3 O         140.1252  143.2542  166.4005 O.2     1  UNL1       -0.4534
      4 C         140.0356  143.9548  165.0771 C.ar    1  UNL1        0.1454
      5 C         138.9347  144.7425  164.4310 C.ar    1  UNL1        0.0406
      6 C         139.1384  145.3385  163.0697 C.ar    1  UNL1        0.0395
      7 C         140.4430  145.1469  162.3545 C.ar    1  UNL1        0.1311
      8 O         140.6466  145.7430  160.9932 O.3     1  UNL1       -0.5058
      9 C         141.5439  144.3592  163.0007 C.ar    1  UNL1        0.0308
     10 C         141.3402  143.7632  164.3620 C.ar    1  UNL1        0.0421
     11 H         139.9589  146.2350  160.5895 H       1  UNL1        0.2922
     12 C         142.0030  141.8307  167.6623 C.ar    1  UNL1        0.0349
     13 C         142.8445  142.4924  168.7129 C.ar    1  UNL1        0.0061
     14 C         143.3625  141.6935  169.8720 C.ar    1  UNL1        0.0367
     15 C         143.0391  140.2329  169.9804 C.ar    1  UNL1        0.1337
     16 O         143.5571  139.4340  171.1395 O.3     1  UNL1       -0.5055
     17 C         142.1976  139.5711  168.9297 C.ar    1  UNL1        0.0367
     18 C         141.6796  140.3700  167.7707 C.ar    1  UNL1        0.0061
     19 H         144.0827  139.8473  171.7958 H       1  UNL1        0.2922
     20 O         144.7984  143.3573  165.3585 O.2     1  UNL1       -0.2698
     21 C         143.6367  142.5150  164.9214 C.2     1  UNL1        0.2522
     22 N         143.8759  141.2435  164.1623 N.am    1  UNL1       -0.2703
     23 C         145.0911  140.5132  163.6726 C.3     1  UNL1        0.1307
     24 C         144.2140  139.4454  163.0888 C.3     1  UNL1        0.2003
     25 F         144.4532  138.1739  162.3297 F       1  UNL1       -0.2336
     26 C         142.9988  140.1758  163.5786 C.3     1  UNL1        0.1307
     27 C         142.8484  144.1676  162.2856 C.3     1  UNL1        0.1023
     28 N         143.0203  143.0217  161.3330 N.3     1  UNL1       -0.2687
     29 C         144.3128  142.5721  160.7187 C.3     1  UNL1        0.0726
     30 C         144.0212  141.3968  159.8334 C.3     1  UNL1        0.0235
     31 C         142.5485  141.1200  159.9006 C.3     1  UNL1        0.0707
     32 C         141.1208  140.6674  159.8180 C.3     1  UNL1        0.1458
     33 O         141.5209  139.5789  158.8666 O.3     1  UNL1       -0.3535
     34 C         142.9486  140.0316  158.9493 C.3     1  UNL1        0.1458
     35 C         141.9299  142.1243  160.8274 C.3     1  UNL1        0.0772
@<TRIPOS>BOND
     1    20    21    2
     2    21     1    1
     3     1     2   ar
     4     2    12    1
     5    12    13   ar
     6    13    14   ar
     7    14    15   ar
     8    15    16    1
     9    15    17   ar
    10    17    18   ar
    11     2     3   ar
    12     3     4   ar
    13     4     5   ar
    14     5     6   ar
    15     6     7   ar
    16     7     8    1
    17     7     9   ar
    18     9    27    1
    19    27    28    1
    20    28    29    1
    21    29    30    1
    22    30    31    1
    23    31    32    1
    24    32    33    1
    25    33    34    1
    26    31    35    1
    27     9    10   ar
    28    21    22   am
    29    22    23    1
    30    23    24    1
    31    24    25    1
    32    24    26    1
    33    10     1   ar
    34    26    22    1
    35    18    12   ar
    36    10     4   ar
    37    35    28    1
    38    34    31    1
    39    16    19    1
    40     8    11    1
@<TRIPOS>MOLECULE
*****
 35 40 0 0 0
SMALL
GASTEIGER

@<TRIPOS>ATOM
      1 C         142.8691  140.8365  165.3929 C.ar    1  UNL1        0.0908
      2 C         142.3530  141.6025  166.5748 C.ar    1  UNL1        0.1496
      3 O         142.6065  143.0603  166.3288 O.2     1  UNL1       -0.4534
      4 C         143.2792  143.1953  164.9950 C.ar    1  UNL1        0.1454
      5 C         143.7649  144.3921  164.2324 C.ar    1  UNL1        0.0406
      6 C         144.4130  144.2145  162.8913 C.ar    1  UNL1        0.0395
      7 C         144.5753  142.8401  162.3129 C.ar    1  UNL1        0.1311
      8 O         145.2234  142.6625  160.9718 O.3     1  UNL1       -0.5058
      9 C         144.0896  141.6433  163.0755 C.ar    1  UNL1        0.0308
     10 C         143.4415  141.8209  164.4165 C.ar    1  UNL1        0.0421
     11 H         145.5269  143.4102  160.4954 H       1  UNL1        0.2922
     12 C         141.6984  141.0140  167.7894 C.ar    1  UNL1        0.0349
     13 C         142.5335  140.3523  168.8451 C.ar    1  UNL1        0.0061
     14 C         141.8789  139.7639  170.0597 C.ar    1  UNL1        0.0367
     15 C         140.3892  139.8371  170.2185 C.ar    1  UNL1        0.1337
     16 O         139.7346  139.2486  171.4331 O.3     1  UNL1       -0.5055
     17 C         139.5540  140.4988  169.1628 C.ar    1  UNL1        0.0367
     18 C         140.2087  141.0873  167.9482 C.ar    1  UNL1        0.0061
     19 H         140.2562  138.8353  172.0926 H       1  UNL1        0.2922
     20 O         143.9981  138.5073  165.6167 O.2     1  UNL1       -0.2698
     21 C         142.8212  139.3475  165.2181 C.2     1  UNL1        0.2522
     22 N         141.5963  138.6986  164.6446 N.am    1  UNL1       -0.2703
     23 C         141.1912  137.2890  164.3305 C.3     1  UNL1        0.1307
     24 C         139.8642  137.7812  163.8337 C.3     1  UNL1        0.2003
     25 F         138.6393  137.1323  163.2602 F       1  UNL1       -0.2336
     26 C         140.2693  139.1908  164.1478 C.3     1  UNL1        0.1307
     27 C         144.2519  140.2688  162.4971 C.3     1  UNL1        0.1023
     28 N         143.1348  139.6492  161.7110 N.3     1  UNL1       -0.2687
     29 C         143.0404  138.2106  161.2966 C.3     1  UNL1        0.0726
     30 C         141.7631  138.0315  160.5309 C.3     1  UNL1        0.0235
     31 C         141.0679  139.3595  160.4720 C.3     1  UNL1        0.0707
     32 C         140.2066  140.5741  160.2909 C.3     1  UNL1        0.1458
     33 O         139.2119  139.7543  159.5237 O.3     1  UNL1       -0.3535
     34 C         140.0733  138.5397  159.7049 C.3     1  UNL1        0.1458
     35 C         141.9157  140.3592  161.2014 C.3     1  UNL1        0.0772
@<TRIPOS>BOND
     1    20    21    2
     2    21     1    1
     3     1     2   ar
     4     2    12    1
     5    12    13   ar
     6    13    14   ar
     7    14    15   ar
     8    15    16    1
     9    15    17   ar
    10    17    18   ar
    11     2     3   ar
    12     3     4   ar
    13     4     5   ar
    14     5     6   ar
    15     6     7   ar
    16     7     8    1
    17     7     9   ar
    18     9    27    1
    19    27    28    1
    20    28    29    1
    21    29    30    1
    22    30    31    1
    23    31    32    1
    24    32    33    1
    25    33    34    1
    26    31    35    1
    27     9    10   ar
    28    21    22   am
    29    22    23    1
    30    23    24    1
    31    24    25    1
    32    24    26    1
    33    10     1   ar
    34    26    22    1
    35    18    12   ar
    36    10     4   ar
    37    35    28    1
    38    34    31    1
    39    16    19    1
    40     8    11    1
@<TRIPOS>MOLECULE
*****
 35 40 0 0 0
SMALL
GASTEIGER

@<TRIPOS>ATOM
      1 C         141.3795  142.5663  165.1415 C.ar    1  UNL1        0.0908
      2 C         140.4082  142.8664  166.2444 C.ar    1  UNL1        0.1496
      3 O         139.5412  144.0073  165.8008 O.2     1  UNL1       -0.4534
      4 C         139.9766  144.4122  164.4237 C.ar    1  UNL1        0.1454
      5 C         139.4854  145.4768  163.4882 C.ar    1  UNL1        0.0406
      6 C         140.1303  145.6509  162.1451 C.ar    1  UNL1        0.0395
      7 C         141.2664  144.7603  161.7376 C.ar    1  UNL1        0.1311
      8 O         141.9113  144.9344  160.3945 O.3     1  UNL1       -0.5058
      9 C         141.7577  143.6957  162.6732 C.ar    1  UNL1        0.0308
     10 C         141.1128  143.5217  164.0162 C.ar    1  UNL1        0.0421
     11 H         141.6044  145.5994  159.8101 H       1  UNL1        0.2922
     12 C         140.3195  142.1513  167.5600 C.ar    1  UNL1        0.0349
     13 C         139.8452  140.7292  167.6101 C.ar    1  UNL1        0.0061
     14 C         139.7565  140.0140  168.9256 C.ar    1  UNL1        0.0367
     15 C         140.1421  140.7210  170.1911 C.ar    1  UNL1        0.1337
     16 O         140.0534  140.0059  171.5067 O.3     1  UNL1       -0.5055
     17 C         140.6164  142.1431  170.1410 C.ar    1  UNL1        0.0367
     18 C         140.7051  142.8583  168.8254 C.ar    1  UNL1        0.0061
     19 H         139.7571  139.1175  171.5379 H       1  UNL1        0.2922
     20 O         143.8386  141.8384  165.5572 O.2     1  UNL1       -0.2698
     21 C         142.4326  141.4984  165.1604 C.2     1  UNL1        0.2522
     22 N         142.0797  140.0902  164.7825 N.am    1  UNL1       -0.2703
     23 C         142.8341  138.7974  164.6850 C.3     1  UNL1        0.1307
     24 C         141.5806  138.0990  164.2481 C.3     1  UNL1        0.2003
     25 F         141.2277  136.6908  163.8702 F       1  UNL1       -0.2336
     26 C         140.8262  139.3917  164.3456 C.3     1  UNL1        0.1307
     27 C         142.8938  142.8051  162.2656 C.3     1  UNL1        0.1023
     28 N         142.6138  141.4591  161.6659 N.3     1  UNL1       -0.2687
     29 C         141.3243  141.0268  161.0329 C.3     1  UNL1        0.0726
     30 C         141.4876  139.6096  160.5696 C.3     1  UNL1        0.0235
     31 C         142.8780  139.1658  160.9162 C.3     1  UNL1        0.0707
     32 C         144.2073  138.5171  161.1647 C.3     1  UNL1        0.1458
     33 O         143.7133  137.2570  160.5181 O.3     1  UNL1       -0.3535
     34 C         142.3839  137.9058  160.2696 C.3     1  UNL1        0.1458
     35 C         143.5740  140.3089  161.5938 C.3     1  UNL1        0.0772
@<TRIPOS>BOND
     1    20    21    2
     2    21     1    1
     3     1     2   ar
     4     2    12    1
     5    12    13   ar
     6    13    14   ar
     7    14    15   ar
     8    15    16    1
     9    15    17   ar
    10    17    18   ar
    11     2     3   ar
    12     3     4   ar
    13     4     5   ar
    14     5     6   ar
    15     6     7   ar
    16     7     8    1
    17     7     9   ar
    18     9    27    1
    19    27    28    1
    20    28    29    1
    21    29    30    1
    22    30    31    1
    23    31    32    1
    24    32    33    1
    25    33    34    1
    26    31    35    1
    27     9    10   ar
    28    21    22   am
    29    22    23    1
    30    23    24    1
    31    24    25    1
    32    24    26    1
    33    10     1   ar
    34    26    22    1
    35    18    12   ar
    36    10     4   ar
    37    35    28    1
    38    34    31    1
    39    16    19    1
    40     8    11    1
@<TRIPOS>MOLECULE
*****
 35 40 0 0 0
SMALL
GASTEIGER

@<TRIPOS>ATOM
      1 C         140.6457  141.4634  165.3935 C.ar    1  UNL1        0.0908
      2 C         140.6460  141.9957  166.7958 C.ar    1  UNL1        0.1496
      3 O         139.7269  143.1802  166.8421 O.2     1  UNL1       -0.4534
      4 C         139.1587  143.3800  165.4684 C.ar    1  UNL1        0.1454
      5 C         138.1976  144.3911  164.9171 C.ar    1  UNL1        0.0406
      6 C         137.8043  144.3410  163.4705 C.ar    1  UNL1        0.0395
      7 C         138.3721  143.2799  162.5751 C.ar    1  UNL1        0.1311
      8 O         137.9788  143.2299  161.1284 O.3     1  UNL1       -0.5058
      9 C         139.3333  142.2689  163.1264 C.ar    1  UNL1        0.0308
     10 C         139.7265  142.3189  164.5730 C.ar    1  UNL1        0.0421
     11 H         137.3784  143.8615  160.7840 H       1  UNL1        0.2922
     12 C         141.4280  141.4408  167.9494 C.ar    1  UNL1        0.0349
     13 C         141.0464  140.1193  168.5477 C.ar    1  UNL1        0.0061
     14 C         141.8284  139.5645  169.7012 C.ar    1  UNL1        0.0367
     15 C         142.9920  140.3311  170.2565 C.ar    1  UNL1        0.1337
     16 O         143.7739  139.7763  171.4100 O.3     1  UNL1       -0.5055
     17 C         143.3735  141.6526  169.6582 C.ar    1  UNL1        0.0367
     18 C         142.5915  142.2075  168.5046 C.ar    1  UNL1        0.0061
     19 H         143.5356  138.9508  171.7837 H       1  UNL1        0.2922
     20 O         140.7382  138.9711  164.6656 O.2     1  UNL1       -0.2698
     21 C         141.4274  140.2827  164.8984 C.2     1  UNL1        0.2522
     22 N         142.8986  140.4139  164.6361 N.am    1  UNL1       -0.2703
     23 C         143.9764  139.4891  164.1535 C.3     1  UNL1        0.1307
     24 C         144.9789  140.5993  164.2652 C.3     1  UNL1        0.2003
     25 F         146.4500  140.7304  164.0028 F       1  UNL1       -0.2336
     26 C         143.9010  141.5241  164.7478 C.3     1  UNL1        0.1307
     27 C         139.9011  141.2078  162.2311 C.3     1  UNL1        0.1023
     28 N         140.9352  141.5664  161.2054 N.3     1  UNL1       -0.2687
     29 C         140.7215  141.6277  159.7219 C.3     1  UNL1        0.0726
     30 C         142.0188  142.0258  159.0828 C.3     1  UNL1        0.0235
     31 C         143.0343  142.2106  160.1712 C.3     1  UNL1        0.0707
     32 C         144.1990  142.4491  161.0858 C.3     1  UNL1        0.1458
     33 O         145.0616  142.7744  159.9025 O.3     1  UNL1       -0.3535
     34 C         143.8968  142.5359  158.9880 C.3     1  UNL1        0.1458
     35 C         142.3646  141.9266  161.4831 C.3     1  UNL1        0.0772
@<TRIPOS>BOND
     1    20    21    2
     2    21     1    1
     3     1     2   ar
     4     2    12    1
     5    12    13   ar
     6    13    14   ar
     7    14    15   ar
     8    15    16    1
     9    15    17   ar
    10    17    18   ar
    11     2     3   ar
    12     3     4   ar
    13     4     5   ar
    14     5     6   ar
    15     6     7   ar
    16     7     8    1
    17     7     9   ar
    18     9    27    1
    19    27    28    1
    20    28    29    1
    21    29    30    1
    22    30    31    1
    23    31    32    1
    24    32    33    1
    25    33    34    1
    26    31    35    1
    27     9    10   ar
    28    21    22   am
    29    22    23    1
    30    23    24    1
    31    24    25    1
    32    24    26    1
    33    10     1   ar
    34    26    22    1
    35    18    12   ar
    36    10     4   ar
    37    35    28    1
    38    34    31    1
    39    16    19    1
    40     8    11    1
@<TRIPOS>MOLECULE
*****
 35 40 0 0 0
SMALL
GASTEIGER

@<TRIPOS>ATOM
      1 C         140.3160  141.4169  165.5296 C.ar    1  UNL1        0.0908
      2 C         140.6541  142.1090  166.8167 C.ar    1  UNL1        0.1496
      3 O         140.0851  143.4957  166.7606 O.2     1  UNL1       -0.4534
      4 C         139.3953  143.6606  165.4388 C.ar    1  UNL1        0.1454
      5 C         138.6557  144.8147  164.8297 C.ar    1  UNL1        0.0406
      6 C         138.0588  144.6839  163.4598 C.ar    1  UNL1        0.0395
      7 C         138.2016  143.3991  162.6990 C.ar    1  UNL1        0.1311
      8 O         137.6047  143.2684  161.3291 O.3     1  UNL1       -0.5058
      9 C         138.9412  142.2450  163.3081 C.ar    1  UNL1        0.0308
     10 C         139.5381  142.3758  164.6780 C.ar    1  UNL1        0.0421
     11 H         137.1427  143.9893  160.9486 H       1  UNL1        0.2922
     12 C         141.4257  141.5182  167.9593 C.ar    1  UNL1        0.0349
     13 C         142.6598  142.2044  168.4654 C.ar    1  UNL1        0.0061
     14 C         143.4314  141.6136  169.6080 C.ar    1  UNL1        0.0367
     15 C         142.9690  140.3365  170.2445 C.ar    1  UNL1        0.1337
     16 O         143.7406  139.7457  171.3871 O.3     1  UNL1       -0.5055
     17 C         141.7350  139.6503  169.7384 C.ar    1  UNL1        0.0367
     18 C         140.9633  140.2411  168.5958 C.ar    1  UNL1        0.0061
     19 H         144.5115  140.1744  171.7032 H       1  UNL1        0.2922
     20 O         142.0152  139.7347  164.5132 O.2     1  UNL1       -0.2698
     21 C         140.6903  140.0123  165.1591 C.2     1  UNL1        0.2522
     22 N         139.7394  138.8853  165.4345 N.am    1  UNL1       -0.2703
     23 C         139.7607  137.4017  165.2143 C.3     1  UNL1        0.1307
     24 C         138.3947  137.2916  165.8241 C.3     1  UNL1        0.2003
     25 F         137.4438  136.1646  166.0995 F       1  UNL1       -0.2336
     26 C         138.3733  138.7752  166.0443 C.3     1  UNL1        0.1307
     27 C         139.0840  140.9602  162.5473 C.3     1  UNL1        0.1023
     28 N         139.9923  140.8911  161.3556 N.3     1  UNL1       -0.2687
     29 C         139.6119  140.4199  159.9832 C.3     1  UNL1        0.0726
     30 C         140.8249  140.5187  159.1064 C.3     1  UNL1        0.0235
     31 C         141.9550  141.0511  159.9368 C.3     1  UNL1        0.0707
     32 C         143.2132  141.5661  160.5706 C.3     1  UNL1        0.1458
     33 O         143.9335  141.4146  159.2636 O.3     1  UNL1       -0.3535
     34 C         142.6753  140.8996  158.6299 C.3     1  UNL1        0.1458
     35 C         141.4404  141.2813  161.3269 C.3     1  UNL1        0.0772
@<TRIPOS>BOND
     1    20    21    2
     2    21     1    1
     3     1     2   ar
     4     2    12    1
     5    12    13   ar
     6    13    14   ar
     7    14    15   ar
     8    15    16    1
     9    15    17   ar
    10    17    18   ar
    11     2     3   ar
    12     3     4   ar
    13     4     5   ar
    14     5     6   ar
    15     6     7   ar
    16     7     8    1
    17     7     9   ar
    18     9    27    1
    19    27    28    1
    20    28    29    1
    21    29    30    1
    22    30    31    1
    23    31    32    1
    24    32    33    1
    25    33    34    1
    26    31    35    1
    27     9    10   ar
    28    21    22   am
    29    22    23    1
    30    23    24    1
    31    24    25    1
    32    24    26    1
    33    10     1   ar
    34    26    22    1
    35    18    12   ar
    36    10     4   ar
    37    35    28    1
    38    34    31    1
    39    16    19    1
    40     8    11    1
@<TRIPOS>MOLECULE
*****
 35 40 0 0 0
SMALL
GASTEIGER

@<TRIPOS>ATOM
      1 C         140.1872  141.5788  165.5661 C.ar    1  UNL1        0.0908
      2 C         140.2982  142.4036  166.8140 C.ar    1  UNL1        0.1496
      3 O         139.7639  143.7727  166.5137 O.2     1  UNL1       -0.4534
      4 C         139.3228  143.7940  165.0802 C.ar    1  UNL1        0.1454
      5 C         138.7167  144.8729  164.2325 C.ar    1  UNL1        0.0406
      6 C         138.3721  144.5958  162.7992 C.ar    1  UNL1        0.0395
      7 C         138.6337  143.2398  162.2135 C.ar    1  UNL1        0.1311
      8 O         138.2892  142.9628  160.7801 O.3     1  UNL1       -0.5058
      9 C         139.2398  142.1610  163.0612 C.ar    1  UNL1        0.0308
     10 C         139.5844  142.4380  164.4945 C.ar    1  UNL1        0.0421
     11 H         137.9105  143.6368  160.2506 H       1  UNL1        0.2922
     12 C         140.8471  141.9407  168.1310 C.ar    1  UNL1        0.0349
     13 C         139.9748  141.1717  169.0785 C.ar    1  UNL1        0.0061
     14 C         140.5236  140.7088  170.3954 C.ar    1  UNL1        0.0367
     15 C         141.9448  141.0148  170.7650 C.ar    1  UNL1        0.1337
     16 O         142.4936  140.5519  172.0819 O.3     1  UNL1       -0.5055
     17 C         142.8171  141.7838  169.8175 C.ar    1  UNL1        0.0367
     18 C         142.2682  142.2467  168.5005 C.ar    1  UNL1        0.0061
     19 H         141.9487  140.0715  172.6738 H       1  UNL1        0.2922
     20 O         139.5803  139.0537  165.4893 O.2     1  UNL1       -0.2698
     21 C         140.6056  140.1461  165.4161 C.2     1  UNL1        0.2522
     22 N         142.0494  139.8059  165.1928 N.am    1  UNL1       -0.2703
     23 C         142.8224  138.5345  165.0035 C.3     1  UNL1        0.1307
     24 C         144.0911  139.3248  164.8770 C.3     1  UNL1        0.2003
     25 F         145.5349  138.9845  164.6537 F       1  UNL1       -0.2336
     26 C         143.3181  140.5962  165.0663 C.3     1  UNL1        0.1307
     27 C         139.5014  140.8050  162.4756 C.3     1  UNL1        0.1023
     28 N         140.3851  140.6659  161.2715 N.3     1  UNL1       -0.2687
     29 C         140.0655  139.8898  160.0282 C.3     1  UNL1        0.0726
     30 C         141.2264  140.0226  159.0876 C.3     1  UNL1        0.0235
     31 C         142.2635  140.8807  159.7495 C.3     1  UNL1        0.0707
     32 C         143.4260  141.7065  160.2150 C.3     1  UNL1        0.1458
     33 O         144.1366  141.4348  158.9222 O.3     1  UNL1       -0.3535
     34 C         142.9740  140.6090  158.4568 C.3     1  UNL1        0.1458
     35 C         141.7435  141.2783  161.0993 C.3     1  UNL1        0.0772
@<TRIPOS>BOND
     1    20    21    2
     2    21     1    1
     3     1     2   ar
     4     2    12    1
     5    12    13   ar
     6    13    14   ar
     7    14    15   ar
     8    15    16    1
     9    15    17   ar
    10    17    18   ar
    11     2     3   ar
    12     3     4   ar
    13     4     5   ar
    14     5     6   ar
    15     6     7   ar
    16     7     8    1
    17     7     9   ar
    18     9    27    1
    19    27    28    1
    20    28    29    1
    21    29    30    1
    22    30    31    1
    23    31    32    1
    24    32    33    1
    25    33    34    1
    26    31    35    1
    27     9    10   ar
    28    21    22   am
    29    22    23    1
    30    23    24    1
    31    24    25    1
    32    24    26    1
    33    10     1   ar
    34    26    22    1
    35    18    12   ar
    36    10     4   ar
    37    35    28    1
    38    34    31    1
    39    16    19    1
    40     8    11    1
