@<TRIPOS>MOLECULE
*****
 41 44 0 0 0
SMALL
GASTEIGER

@<TRIPOS>ATOM
      1 C         143.3235  137.4985  156.0274 C.ar    1  UNL1        0.1459
      2 C         144.0751  138.7911  155.9084 C.ar    1  UNL1        0.0391
      3 C         143.6479  139.9837  156.7115 C.ar    1  UNL1        0.0228
      4 C         142.4690  139.8838  157.6336 C.ar    1  UNL1        0.0894
      5 N         141.8194  140.8833  158.5442 N.ar    1  UNL1       -0.2239
      6 C         140.6663  140.2083  159.2259 C.ar    1  UNL1        0.1667
      7 S         140.6032  138.7917  158.7367 S.2     1  UNL1       -0.0512
      8 C         141.7174  138.5912  157.7526 C.ar    1  UNL1        0.0528
      9 C         142.1446  137.3985  156.9495 C.ar    1  UNL1        0.0456
     10 N         139.7389  140.8392  160.2220 N.am    1  UNL1       -0.2482
     11 C         139.8398  140.4777  161.6743 C.2     1  UNL1        0.3096
     12 O         140.8681  139.4853  162.1305 O.2     1  UNL1       -0.2521
     13 N         138.9126  141.1085  162.6704 N.am    1  UNL1       -0.2680
     14 H         139.0641  141.4905  159.9226 H       1  UNL1        0.1583
     15 H         138.2377  141.7598  162.3710 H       1  UNL1        0.1564
     16 C         139.0135  140.7470  164.1227 C.ar    1  UNL1        0.0515
     17 C         139.7007  141.6745  165.0804 C.ar    1  UNL1        0.0185
     18 C         139.8017  141.3130  166.5327 C.ar    1  UNL1        0.0726
     19 C         139.2153  140.0240  167.0273 C.ar    1  UNL1        0.0078
     20 C         138.5281  139.0965  166.0695 C.ar    1  UNL1        0.0726
     21 C         138.4272  139.4580  164.6172 C.ar    1  UNL1        0.0185
     22 C         140.4889  142.2407  167.4905 C.3     1  UNL1        0.4186
     23 F         141.1762  143.1682  168.4482 F       1  UNL1       -0.1659
     24 F         140.9006  143.1179  166.3454 F       1  UNL1       -0.1659
     25 F         140.0773  141.3634  168.6354 F       1  UNL1       -0.1659
     26 C         137.9417  137.8074  166.5640 C.3     1  UNL1        0.4186
     27 F         137.3554  136.5183  167.0585 F       1  UNL1       -0.1659
     28 F         138.6304  137.0687  165.4549 F       1  UNL1       -0.1659
     29 F         137.2531  138.5461  167.6732 F       1  UNL1       -0.1659
     30 O         143.7507  136.3058  155.2242 O.3     1  UNL1       -0.4534
     31 C         143.4290  132.6495  156.7335 C.ar    1  UNL1        0.1375
     32 C         143.9810  134.0068  156.4122 C.ar    1  UNL1        0.0612
     33 C         143.1988  134.9485  155.5455 C.ar    1  UNL1        0.1485
     34 C         141.8647  134.5330  154.9999 C.ar    1  UNL1        0.0582
     35 C         141.3129  133.1757  155.3211 C.ar    1  UNL1        0.1021
     36 N         142.0950  132.2340  156.1879 N.ar    1  UNL1       -0.2391
     37 C         144.4588  129.3948  158.7576 C.3     1  UNL1        0.1110
     38 N         143.6766  130.3366  157.8908 N.am    1  UNL1       -0.2979
     39 C         144.2112  131.7077  157.6003 C.2     1  UNL1        0.2637
     40 O         145.5278  132.1370  158.1765 O.2     1  UNL1       -0.2685
     41 H         142.8125  130.0548  157.5125 H       1  UNL1        0.1498
@<TRIPOS>BOND
     1    37    38    1
     2    38    39   am
     3    39    40    2
     4    39    31    1
     5    31    32   ar
     6    32    33   ar
     7    33    30    1
     8    30     1    1
     9     1     2   ar
    10     2     3   ar
    11     3     4   ar
    12     4     5   ar
    13     5     6   ar
    14     6    10    1
    15    10    11   am
    16    11    12    2
    17    11    13   am
    18    13    16    1
    19    16    17   ar
    20    17    18   ar
    21    18    22    1
    22    22    23    1
    23    22    24    1
    24    22    25    1
    25    18    19   ar
    26    19    20   ar
    27    20    26    1
    28    26    27    1
    29    26    28    1
    30    26    29    1
    31    20    21   ar
    32     6     7   ar
    33     7     8   ar
    34     8     9   ar
    35    33    34   ar
    36    34    35   ar
    37    35    36   ar
    38    36    31   ar
    39     9     1   ar
    40     8     4   ar
    41    21    16   ar
    42    38    41    1
    43    10    14    1
    44    13    15    1
@<TRIPOS>MOLECULE
*****
 41 44 0 0 0
SMALL
GASTEIGER

@<TRIPOS>ATOM
      1 C         142.0496  136.4939  156.0580 C.ar    1  UNL1        0.1459
      2 C         140.6355  136.4353  155.5614 C.ar    1  UNL1        0.0391
      3 C         139.5716  137.2555  156.2287 C.ar    1  UNL1        0.0228
      4 C         139.9219  138.1343  157.3928 C.ar    1  UNL1        0.0894
      5 N         139.0930  139.0492  158.2449 N.ar    1  UNL1       -0.2239
      6 C         139.9949  139.6732  159.2682 C.ar    1  UNL1        0.1667
      7 S         141.3812  139.1440  159.0485 S.2     1  UNL1       -0.0512
      8 C         141.3360  138.1930  157.8894 C.ar    1  UNL1        0.0528
      9 C         142.3999  137.3728  157.2221 C.ar    1  UNL1        0.0456
     10 N         139.5829  140.6542  160.3256 N.am    1  UNL1       -0.2482
     11 C         139.6002  140.2510  161.7703 C.2     1  UNL1        0.3096
     12 O         140.0294  138.8668  162.1576 O.2     1  UNL1       -0.2521
     13 N         139.1882  141.2319  162.8277 N.am    1  UNL1       -0.2680
     14 H         139.3012  141.5626  160.0714 H       1  UNL1        0.1583
     15 H         138.9065  142.1403  162.5735 H       1  UNL1        0.1564
     16 C         139.2055  140.8287  164.2724 C.ar    1  UNL1        0.0515
     17 C         138.5630  139.5424  164.6998 C.ar    1  UNL1        0.0185
     18 C         138.5803  139.1392  166.1445 C.ar    1  UNL1        0.0726
     19 C         139.2400  140.0223  167.1618 C.ar    1  UNL1        0.0078
     20 C         139.8824  141.3086  166.7343 C.ar    1  UNL1        0.0726
     21 C         139.8652  141.7117  165.2897 C.ar    1  UNL1        0.0185
     22 C         137.9377  137.8529  166.5719 C.3     1  UNL1        0.4186
     23 F         137.2953  136.5666  166.9993 F       1  UNL1       -0.1659
     24 F         138.6299  137.1349  165.4514 F       1  UNL1       -0.1659
     25 F         137.2457  138.5709  167.6923 F       1  UNL1       -0.1659
     26 C         140.5422  142.1917  167.7517 C.3     1  UNL1        0.4186
     27 F         141.2019  143.0748  168.7689 F       1  UNL1       -0.1659
     28 F         140.9125  140.9837  168.5601 F       1  UNL1       -0.1659
     29 F         140.1718  143.3997  166.9431 F       1  UNL1       -0.1659
     30 O         143.1136  135.6737  155.3907 O.3     1  UNL1       -0.4534
     31 C         143.5284  131.8745  156.4603 C.ar    1  UNL1        0.1375
     32 C         143.6337  133.3708  156.4751 C.ar    1  UNL1        0.0612
     33 C         143.0083  134.1775  155.3760 C.ar    1  UNL1        0.1485
     34 C         142.2776  133.4879  154.2621 C.ar    1  UNL1        0.0582
     35 C         142.1723  131.9917  154.2474 C.ar    1  UNL1        0.1021
     36 N         142.7977  131.1850  155.3465 N.ar    1  UNL1       -0.2391
     37 C         144.1578  128.9636  159.0834 C.3     1  UNL1        0.1110
     38 N         143.5324  129.7703  157.9843 N.am    1  UNL1       -0.2979
     39 C         144.1538  131.0678  157.5595 C.2     1  UNL1        0.2637
     40 O         145.4006  131.5585  158.2338 O.2     1  UNL1       -0.2685
     41 H         142.7141  129.4482  157.5417 H       1  UNL1        0.1498
@<TRIPOS>BOND
     1    37    38    1
     2    38    39   am
     3    39    40    2
     4    39    31    1
     5    31    32   ar
     6    32    33   ar
     7    33    30    1
     8    30     1    1
     9     1     2   ar
    10     2     3   ar
    11     3     4   ar
    12     4     5   ar
    13     5     6   ar
    14     6    10    1
    15    10    11   am
    16    11    12    2
    17    11    13   am
    18    13    16    1
    19    16    17   ar
    20    17    18   ar
    21    18    22    1
    22    22    23    1
    23    22    24    1
    24    22    25    1
    25    18    19   ar
    26    19    20   ar
    27    20    26    1
    28    26    27    1
    29    26    28    1
    30    26    29    1
    31    20    21   ar
    32     6     7   ar
    33     7     8   ar
    34     8     9   ar
    35    33    34   ar
    36    34    35   ar
    37    35    36   ar
    38    36    31   ar
    39     9     1   ar
    40     8     4   ar
    41    21    16   ar
    42    38    41    1
    43    10    14    1
    44    13    15    1
@<TRIPOS>MOLECULE
*****
 41 44 0 0 0
SMALL
GASTEIGER

@<TRIPOS>ATOM
      1 C         142.6426  135.5432  154.9825 C.ar    1  UNL1        0.1459
      2 C         143.7225  136.5168  155.3512 C.ar    1  UNL1        0.0391
      3 C         143.3910  137.7311  156.1670 C.ar    1  UNL1        0.0228
      4 C         141.9795  137.9718  156.6140 C.ar    1  UNL1        0.0894
      5 N         141.3562  139.0717  157.4214 N.ar    1  UNL1       -0.2239
      6 C         139.8910  138.7779  157.5516 C.ar    1  UNL1        0.1667
      7 S         139.6089  137.4964  156.8247 S.2     1  UNL1       -0.0512
      8 C         140.8996  136.9983  156.2453 C.ar    1  UNL1        0.0528
      9 C         141.2312  135.7840  155.4295 C.ar    1  UNL1        0.0456
     10 N         138.8847  139.6180  158.2807 N.am    1  UNL1       -0.2482
     11 C         138.9938  139.7991  159.7657 C.2     1  UNL1        0.3096
     12 O         140.1094  139.1400  160.5216 O.2     1  UNL1       -0.2521
     13 N         137.9875  140.6391  160.4948 N.am    1  UNL1       -0.2680
     14 H         138.1525  140.0505  157.7846 H       1  UNL1        0.1583
     15 H         137.2554  141.0716  159.9987 H       1  UNL1        0.1564
     16 C         138.0967  140.8202  161.9799 C.ar    1  UNL1        0.0515
     17 C         138.1521  142.2002  162.5651 C.ar    1  UNL1        0.0185
     18 C         138.2613  142.3813  164.0501 C.ar    1  UNL1        0.0726
     19 C         138.3150  141.1824  164.9499 C.ar    1  UNL1        0.0078
     20 C         138.2596  139.8024  164.3647 C.ar    1  UNL1        0.0726
     21 C         138.1504  139.6213  162.8797 C.ar    1  UNL1        0.0185
     22 C         138.3167  143.7614  164.6353 C.3     1  UNL1        0.4186
     23 F         138.3722  145.1413  165.2205 F       1  UNL1       -0.1659
     24 F         137.3718  144.2481  163.5768 F       1  UNL1       -0.1659
     25 F         139.2616  143.2746  165.6937 F       1  UNL1       -0.1659
     26 C         138.3134  138.6034  165.2645 C.3     1  UNL1        0.4186
     27 F         138.3671  137.4044  166.1642 F       1  UNL1       -0.1659
     28 F         138.9198  137.7974  164.1543 F       1  UNL1       -0.1659
     29 F         137.7069  139.4094  166.3748 F       1  UNL1       -0.1659
     30 O         142.9741  134.3288  154.1667 O.3     1  UNL1       -0.4534
     31 C         143.0965  131.0552  156.4068 C.ar    1  UNL1        0.1375
     32 C         143.4110  132.4231  155.8776 C.ar    1  UNL1        0.0612
     33 C         142.6597  132.9610  154.6959 C.ar    1  UNL1        0.1485
     34 C         141.5940  132.1311  154.0436 C.ar    1  UNL1        0.0582
     35 C         141.2795  130.7633  154.5728 C.ar    1  UNL1        0.1021
     36 N         142.0308  130.2253  155.7545 N.ar    1  UNL1       -0.2391
     37 C         144.1821  128.6815  159.3964 C.3     1  UNL1        0.1110
     38 N         143.4308  129.2195  158.2147 N.am    1  UNL1       -0.2979
     39 C         143.8477  130.5172  157.5884 C.2     1  UNL1        0.2637
     40 O         145.0158  131.2769  158.1438 O.2     1  UNL1       -0.2685
     41 H         142.6642  128.7208  157.8503 H       1  UNL1        0.1498
@<TRIPOS>BOND
     1    37    38    1
     2    38    39   am
     3    39    40    2
     4    39    31    1
     5    31    32   ar
     6    32    33   ar
     7    33    30    1
     8    30     1    1
     9     1     2   ar
    10     2     3   ar
    11     3     4   ar
    12     4     5   ar
    13     5     6   ar
    14     6    10    1
    15    10    11   am
    16    11    12    2
    17    11    13   am
    18    13    16    1
    19    16    17   ar
    20    17    18   ar
    21    18    22    1
    22    22    23    1
    23    22    24    1
    24    22    25    1
    25    18    19   ar
    26    19    20   ar
    27    20    26    1
    28    26    27    1
    29    26    28    1
    30    26    29    1
    31    20    21   ar
    32     6     7   ar
    33     7     8   ar
    34     8     9   ar
    35    33    34   ar
    36    34    35   ar
    37    35    36   ar
    38    36    31   ar
    39     9     1   ar
    40     8     4   ar
    41    21    16   ar
    42    38    41    1
    43    10    14    1
    44    13    15    1
@<TRIPOS>MOLECULE
*****
 41 44 0 0 0
SMALL
GASTEIGER

@<TRIPOS>ATOM
      1 C         144.3306  139.8310  156.5671 C.ar    1  UNL1        0.1459
      2 C         145.2034  141.0229  156.8269 C.ar    1  UNL1        0.0391
      3 C         144.7984  142.0396  157.8527 C.ar    1  UNL1        0.0228
      4 C         143.5208  141.8642  158.6188 C.ar    1  UNL1        0.0894
      5 N         142.8666  142.6946  159.6831 N.ar    1  UNL1       -0.2239
      6 C         141.5896  142.0157  160.0811 C.ar    1  UNL1        0.1667
      7 S         141.4546  140.7659  159.2628 S.2     1  UNL1       -0.0512
      8 C         142.6481  140.6722  158.3591 C.ar    1  UNL1        0.0528
      9 C         143.0530  139.6556  157.3332 C.ar    1  UNL1        0.0456
     10 N         140.6181  142.5014  161.1157 N.am    1  UNL1       -0.2482
     11 C         140.6059  141.8826  162.4821 C.2     1  UNL1        0.3096
     12 O         141.5651  140.7780  162.8138 O.2     1  UNL1       -0.2521
     13 N         139.6345  142.3682  163.5167 N.am    1  UNL1       -0.2680
     14 H         139.9886  143.2264  160.8980 H       1  UNL1        0.1583
     15 H         139.0050  143.0932  163.2990 H       1  UNL1        0.1564
     16 C         139.6222  141.7494  164.8830 C.ar    1  UNL1        0.0515
     17 C         140.3624  142.4059  166.0104 C.ar    1  UNL1        0.0185
     18 C         140.3501  141.7871  167.3767 C.ar    1  UNL1        0.0726
     19 C         139.5976  140.5117  167.6157 C.ar    1  UNL1        0.0078
     20 C         138.8575  139.8551  166.4883 C.ar    1  UNL1        0.0726
     21 C         138.8697  140.4740  165.1220 C.ar    1  UNL1        0.0185
     22 C         141.0903  142.4437  168.5042 C.3     1  UNL1        0.4186
     23 F         141.8305  143.1003  169.6315 F       1  UNL1       -0.1659
     24 F         142.0452  141.2877  168.5505 F       1  UNL1       -0.1659
     25 F         140.1355  143.5995  168.4578 F       1  UNL1       -0.1659
     26 C         138.1049  138.5797  166.7272 C.3     1  UNL1        0.4186
     27 F         137.3525  137.3043  166.9661 F       1  UNL1       -0.1659
     28 F         137.7390  139.0532  168.1026 F       1  UNL1       -0.1659
     29 F         138.4709  138.1061  165.3517 F       1  UNL1       -0.1659
     30 O         144.7356  138.8142  155.5412 O.3     1  UNL1       -0.4534
     31 C         143.0796  135.2086  155.6267 C.ar    1  UNL1        0.1375
     32 C         143.9897  136.3582  155.9433 C.ar    1  UNL1        0.0612
     33 C         143.8255  137.6646  155.2247 C.ar    1  UNL1        0.1485
     34 C         142.7512  137.8214  154.1896 C.ar    1  UNL1        0.0582
     35 C         141.8412  136.6718  153.8731 C.ar    1  UNL1        0.1021
     36 N         142.0054  135.3654  154.5917 N.ar    1  UNL1       -0.2391
     37 C         144.7034  132.2740  157.7485 C.3     1  UNL1        0.1110
     38 N         144.5392  133.5804  157.0299 N.am    1  UNL1       -0.2979
     39 C         143.2438  133.9022  156.3453 C.2     1  UNL1        0.2637
     40 O         142.1128  132.9176  156.3792 O.2     1  UNL1       -0.2685
     41 H         145.2815  134.2267  157.0077 H       1  UNL1        0.1498
@<TRIPOS>BOND
     1    37    38    1
     2    38    39   am
     3    39    40    2
     4    39    31    1
     5    31    32   ar
     6    32    33   ar
     7    33    30    1
     8    30     1    1
     9     1     2   ar
    10     2     3   ar
    11     3     4   ar
    12     4     5   ar
    13     5     6   ar
    14     6    10    1
    15    10    11   am
    16    11    12    2
    17    11    13   am
    18    13    16    1
    19    16    17   ar
    20    17    18   ar
    21    18    22    1
    22    22    23    1
    23    22    24    1
    24    22    25    1
    25    18    19   ar
    26    19    20   ar
    27    20    26    1
    28    26    27    1
    29    26    28    1
    30    26    29    1
    31    20    21   ar
    32     6     7   ar
    33     7     8   ar
    34     8     9   ar
    35    33    34   ar
    36    34    35   ar
    37    35    36   ar
    38    36    31   ar
    39     9     1   ar
    40     8     4   ar
    41    21    16   ar
    42    38    41    1
    43    10    14    1
    44    13    15    1
@<TRIPOS>MOLECULE
*****
 41 44 0 0 0
SMALL
GASTEIGER

@<TRIPOS>ATOM
      1 C         144.5343  140.2977  156.8195 C.ar    1  UNL1        0.1459
      2 C         145.2787  141.5533  157.1644 C.ar    1  UNL1        0.0391
      3 C         144.7418  142.4789  158.2155 C.ar    1  UNL1        0.0228
      4 C         143.4604  142.1487  158.9219 C.ar    1  UNL1        0.0894
      5 N         142.6920  142.8637  159.9936 N.ar    1  UNL1       -0.2239
      6 C         141.4726  142.0499  160.3110 C.ar    1  UNL1        0.1667
      7 S         141.4874  140.8319  159.4355 S.2     1  UNL1       -0.0512
      8 C         142.7159  140.8930  158.5770 C.ar    1  UNL1        0.0528
      9 C         143.2528  139.9675  157.5258 C.ar    1  UNL1        0.0456
     10 N         140.4227  142.3936  161.3258 N.am    1  UNL1       -0.2482
     11 C         140.4100  141.7006  162.6560 C.2     1  UNL1        0.3096
     12 O         141.4472  140.6639  162.9715 O.2     1  UNL1       -0.2521
     13 N         139.3602  142.0443  163.6708 N.am    1  UNL1       -0.2680
     14 H         139.7420  143.0740  161.1187 H       1  UNL1        0.1583
     15 H         138.6795  142.7247  163.4637 H       1  UNL1        0.1564
     16 C         139.3475  141.3513  165.0010 C.ar    1  UNL1        0.0515
     17 C         138.6854  140.0129  165.1432 C.ar    1  UNL1        0.0185
     18 C         138.6728  139.3199  166.4734 C.ar    1  UNL1        0.0726
     19 C         139.3222  139.9653  167.6615 C.ar    1  UNL1        0.0078
     20 C         139.9843  141.3037  167.5194 C.ar    1  UNL1        0.0726
     21 C         139.9970  141.9967  166.1891 C.ar    1  UNL1        0.0185
     22 C         138.0106  137.9815  166.6156 C.3     1  UNL1        0.4186
     23 F         137.3485  136.6430  166.7576 F       1  UNL1       -0.1659
     24 F         137.2047  138.5026  167.7684 F       1  UNL1       -0.1659
     25 F         138.8165  137.4604  165.4627 F       1  UNL1       -0.1659
     26 C         140.6338  141.9492  168.7075 C.3     1  UNL1        0.4186
     27 F         141.2832  142.5947  169.8956 F       1  UNL1       -0.1659
     28 F         140.4327  143.2987  168.0843 F       1  UNL1       -0.1659
     29 F         140.8348  140.5997  169.3308 F       1  UNL1       -0.1659
     30 O         145.0712  139.3721  155.7683 O.3     1  UNL1       -0.4534
     31 C         143.3840  135.8645  154.9930 C.ar    1  UNL1        0.1375
     32 C         144.2765  136.9040  155.6039 C.ar    1  UNL1        0.0612
     33 C         144.1788  138.3327  155.1574 C.ar    1  UNL1        0.1485
     34 C         143.1885  138.7219  154.1001 C.ar    1  UNL1        0.0582
     35 C         142.2961  137.6825  153.4892 C.ar    1  UNL1        0.1021
     36 N         142.3939  136.2538  153.9357 N.ar    1  UNL1       -0.2391
     37 C         144.3382  132.6614  157.1330 C.3     1  UNL1        0.1110
     38 N         144.2404  134.0901  156.6866 N.am    1  UNL1       -0.2979
     39 C         143.4818  134.4359  155.4395 C.2     1  UNL1        0.2637
     40 O         142.8211  133.3530  154.6390 O.2     1  UNL1       -0.2685
     41 H         144.6740  134.8008  157.2120 H       1  UNL1        0.1498
@<TRIPOS>BOND
     1    37    38    1
     2    38    39   am
     3    39    40    2
     4    39    31    1
     5    31    32   ar
     6    32    33   ar
     7    33    30    1
     8    30     1    1
     9     1     2   ar
    10     2     3   ar
    11     3     4   ar
    12     4     5   ar
    13     5     6   ar
    14     6    10    1
    15    10    11   am
    16    11    12    2
    17    11    13   am
    18    13    16    1
    19    16    17   ar
    20    17    18   ar
    21    18    22    1
    22    22    23    1
    23    22    24    1
    24    22    25    1
    25    18    19   ar
    26    19    20   ar
    27    20    26    1
    28    26    27    1
    29    26    28    1
    30    26    29    1
    31    20    21   ar
    32     6     7   ar
    33     7     8   ar
    34     8     9   ar
    35    33    34   ar
    36    34    35   ar
    37    35    36   ar
    38    36    31   ar
    39     9     1   ar
    40     8     4   ar
    41    21    16   ar
    42    38    41    1
    43    10    14    1
    44    13    15    1
@<TRIPOS>MOLECULE
*****
 41 44 0 0 0
SMALL
GASTEIGER

@<TRIPOS>ATOM
      1 C         142.4624  137.5203  156.0304 C.ar    1  UNL1        0.1459
      2 C         143.5051  138.5982  156.0566 C.ar    1  UNL1        0.0391
      3 C         143.3541  139.7653  156.9866 C.ar    1  UNL1        0.0228
      4 C         142.1604  139.8545  157.8905 C.ar    1  UNL1        0.0894
      5 N         141.7442  140.8775  158.9056 N.ar    1  UNL1       -0.2239
      6 C         140.4443  140.4317  159.5068 C.ar    1  UNL1        0.1667
      7 S         140.0571  139.1333  158.8633 S.2     1  UNL1       -0.0512
      8 C         141.1177  138.7765  157.8644 C.ar    1  UNL1        0.0528
      9 C         141.2687  137.6094  156.9344 C.ar    1  UNL1        0.0456
     10 N         139.6679  141.1571  160.5657 N.am    1  UNL1       -0.2482
     11 C         139.7531  140.7119  161.9956 C.2     1  UNL1        0.3096
     12 O         140.6148  139.5414  162.3666 O.2     1  UNL1       -0.2521
     13 N         138.9767  141.4372  163.0544 N.am    1  UNL1       -0.2680
     14 H         139.1024  141.9252  160.3222 H       1  UNL1        0.1583
     15 H         138.4112  142.2054  162.8109 H       1  UNL1        0.1564
     16 C         139.0620  140.9920  164.4843 C.ar    1  UNL1        0.0515
     17 C         139.7940  141.8316  165.4888 C.ar    1  UNL1        0.0185
     18 C         139.8792  141.3865  166.9187 C.ar    1  UNL1        0.0726
     19 C         139.2325  140.1017  167.3441 C.ar    1  UNL1        0.0078
     20 C         138.5004  139.2621  166.3396 C.ar    1  UNL1        0.0726
     21 C         138.4152  139.7072  164.9097 C.ar    1  UNL1        0.0185
     22 C         140.6113  142.2262  167.9233 C.3     1  UNL1        0.4186
     23 F         141.3433  143.0658  168.9278 F       1  UNL1       -0.1659
     24 F         141.4118  142.8499  166.8186 F       1  UNL1       -0.1659
     25 F         139.8109  141.6024  169.0279 F       1  UNL1       -0.1659
     26 C         137.8536  137.9772  166.7649 C.3     1  UNL1        0.4186
     27 F         137.2068  136.6925  167.1903 F       1  UNL1       -0.1659
     28 F         137.2760  138.6657  167.9659 F       1  UNL1       -0.1659
     29 F         138.4313  137.2888  165.5639 F       1  UNL1       -0.1659
     30 O         142.6134  136.3531  155.1004 O.3     1  UNL1       -0.4534
     31 C         141.8577  132.4757  155.4805 C.ar    1  UNL1        0.1375
     32 C         141.8560  133.8733  154.9358 C.ar    1  UNL1        0.0612
     33 C         142.6150  134.9555  155.6450 C.ar    1  UNL1        0.1485
     34 C         143.3757  134.6399  156.8987 C.ar    1  UNL1        0.0582
     35 C         143.3773  133.2423  157.4433 C.ar    1  UNL1        0.1021
     36 N         142.6183  132.1602  156.7342 N.ar    1  UNL1       -0.2391
     37 C         140.3950  128.9007  154.5693 C.3     1  UNL1        0.1110
     38 N         141.1540  129.9828  155.2784 N.am    1  UNL1       -0.2979
     39 C         141.0986  131.3935  154.7714 C.2     1  UNL1        0.2637
     40 O         140.2843  131.7220  153.5553 O.2     1  UNL1       -0.2685
     41 H         141.6885  129.7672  156.0766 H       1  UNL1        0.1498
@<TRIPOS>BOND
     1    37    38    1
     2    38    39   am
     3    39    40    2
     4    39    31    1
     5    31    32   ar
     6    32    33   ar
     7    33    30    1
     8    30     1    1
     9     1     2   ar
    10     2     3   ar
    11     3     4   ar
    12     4     5   ar
    13     5     6   ar
    14     6    10    1
    15    10    11   am
    16    11    12    2
    17    11    13   am
    18    13    16    1
    19    16    17   ar
    20    17    18   ar
    21    18    22    1
    22    22    23    1
    23    22    24    1
    24    22    25    1
    25    18    19   ar
    26    19    20   ar
    27    20    26    1
    28    26    27    1
    29    26    28    1
    30    26    29    1
    31    20    21   ar
    32     6     7   ar
    33     7     8   ar
    34     8     9   ar
    35    33    34   ar
    36    34    35   ar
    37    35    36   ar
    38    36    31   ar
    39     9     1   ar
    40     8     4   ar
    41    21    16   ar
    42    38    41    1
    43    10    14    1
    44    13    15    1
@<TRIPOS>MOLECULE
*****
 41 44 0 0 0
SMALL
GASTEIGER

@<TRIPOS>ATOM
      1 C         142.4976  135.0053  154.8440 C.ar    1  UNL1        0.1459
      2 C         143.6563  135.7795  155.3990 C.ar    1  UNL1        0.0391
      3 C         143.4107  136.9724  156.2745 C.ar    1  UNL1        0.0228
      4 C         142.0065  137.3912  156.5950 C.ar    1  UNL1        0.0894
      5 N         141.4587  138.5156  157.4232 N.ar    1  UNL1       -0.2239
      6 C         139.9615  138.4362  157.3801 C.ar    1  UNL1        0.1667
      7 S         139.5839  137.2629  156.5251 S.2     1  UNL1       -0.0512
      8 C         140.8478  136.6171  156.0399 C.ar    1  UNL1        0.0528
      9 C         141.0934  135.4242  155.1644 C.ar    1  UNL1        0.0456
     10 N         139.0089  139.3668  158.0706 N.am    1  UNL1       -0.2482
     11 C         139.0825  139.5475  159.5578 C.2     1  UNL1        0.3096
     12 O         140.1086  138.7976  160.3546 O.2     1  UNL1       -0.2521
     13 N         138.1300  140.4780  160.2483 N.am    1  UNL1       -0.2680
     14 H         138.3354  139.8590  157.5476 H       1  UNL1        0.1583
     15 H         137.4565  140.9702  159.7254 H       1  UNL1        0.1564
     16 C         138.2036  140.6587  161.7356 C.ar    1  UNL1        0.0515
     17 C         138.2563  139.4595  162.6351 C.ar    1  UNL1        0.0185
     18 C         138.3299  139.6401  164.1224 C.ar    1  UNL1        0.0726
     19 C         138.3508  141.0200  164.7101 C.ar    1  UNL1        0.0078
     20 C         138.2981  142.2192  163.8106 C.ar    1  UNL1        0.0726
     21 C         138.2245  142.0385  162.3234 C.ar    1  UNL1        0.0185
     22 C         138.3826  138.4409  165.0219 C.3     1  UNL1        0.4186
     23 F         138.4353  137.2417  165.9213 F       1  UNL1       -0.1659
     24 F         139.0748  137.6620  163.9428 F       1  UNL1       -0.1659
     25 F         137.6904  139.2198  166.1008 F       1  UNL1       -0.1659
     26 C         138.3190  143.5991  164.3984 C.3     1  UNL1        0.4186
     27 F         138.3398  144.9790  164.9861 F       1  UNL1       -0.1659
     28 F         137.3036  144.0447  163.3883 F       1  UNL1       -0.1659
     29 F         139.3344  143.1535  165.4086 F       1  UNL1       -0.1659
     30 O         142.7431  133.8123  153.9684 O.3     1  UNL1       -0.4534
     31 C         143.0458  130.6452  156.3408 C.ar    1  UNL1        0.1375
     32 C         143.2337  132.0290  155.7930 C.ar    1  UNL1        0.0612
     33 C         142.5553  132.4286  154.5162 C.ar    1  UNL1        0.1485
     34 C         141.6891  131.4445  153.7873 C.ar    1  UNL1        0.0582
     35 C         141.5013  130.0609  154.3351 C.ar    1  UNL1        0.1021
     36 N         142.1797  129.6612  155.6118 N.ar    1  UNL1       -0.2391
     37 C         143.9335  128.6353  159.6457 C.3     1  UNL1        0.1110
     38 N         143.2551  129.0350  158.3689 N.am    1  UNL1       -0.2979
     39 C         143.7242  130.2456  157.6175 C.2     1  UNL1        0.2637
     40 O         144.8715  131.0564  158.1429 O.2     1  UNL1       -0.2685
     41 H         142.5021  128.5028  158.0241 H       1  UNL1        0.1498
@<TRIPOS>BOND
     1    37    38    1
     2    38    39   am
     3    39    40    2
     4    39    31    1
     5    31    32   ar
     6    32    33   ar
     7    33    30    1
     8    30     1    1
     9     1     2   ar
    10     2     3   ar
    11     3     4   ar
    12     4     5   ar
    13     5     6   ar
    14     6    10    1
    15    10    11   am
    16    11    12    2
    17    11    13   am
    18    13    16    1
    19    16    17   ar
    20    17    18   ar
    21    18    22    1
    22    22    23    1
    23    22    24    1
    24    22    25    1
    25    18    19   ar
    26    19    20   ar
    27    20    26    1
    28    26    27    1
    29    26    28    1
    30    26    29    1
    31    20    21   ar
    32     6     7   ar
    33     7     8   ar
    34     8     9   ar
    35    33    34   ar
    36    34    35   ar
    37    35    36   ar
    38    36    31   ar
    39     9     1   ar
    40     8     4   ar
    41    21    16   ar
    42    38    41    1
    43    10    14    1
    44    13    15    1
@<TRIPOS>MOLECULE
*****
 41 44 0 0 0
SMALL
GASTEIGER

@<TRIPOS>ATOM
      1 C         140.9337  140.9098  163.6726 C.ar    1  UNL1        0.1459
      2 C         142.1549  140.3285  164.3210 C.ar    1  UNL1        0.0391
      3 C         143.2760  139.8036  163.4738 C.ar    1  UNL1        0.0228
      4 C         143.1758  139.8601  161.9783 C.ar    1  UNL1        0.0894
      5 N         144.1138  139.4232  160.8922 N.ar    1  UNL1       -0.2239
      6 C         143.4722  139.7346  159.5726 C.ar    1  UNL1        0.1667
      7 S         142.1377  140.3638  159.8431 S.2     1  UNL1       -0.0512
      8 C         141.9545  140.4414  161.3298 C.ar    1  UNL1        0.0528
      9 C         140.8335  140.9663  162.1770 C.ar    1  UNL1        0.0456
     10 N         144.0616  139.4641  158.2200 N.am    1  UNL1       -0.2482
     11 C         144.7749  140.5570  157.4806 C.2     1  UNL1        0.3096
     12 O         144.8989  141.9203  158.0939 O.2     1  UNL1       -0.2521
     13 N         145.3643  140.2866  156.1281 N.am    1  UNL1       -0.2680
     14 H         143.9802  138.5693  157.8175 H       1  UNL1        0.1583
     15 H         145.2829  139.3919  155.7256 H       1  UNL1        0.1564
     16 C         146.0777  141.3795  155.3887 C.ar    1  UNL1        0.0515
     17 C         147.5750  141.3716  155.3000 C.ar    1  UNL1        0.0185
     18 C         148.2884  142.4645  154.5606 C.ar    1  UNL1        0.0726
     19 C         147.5044  143.5653  153.9099 C.ar    1  UNL1        0.0078
     20 C         146.0071  143.5733  153.9986 C.ar    1  UNL1        0.0726
     21 C         145.2937  142.4804  154.7380 C.ar    1  UNL1        0.0185
     22 C         149.7858  142.4564  154.4720 C.3     1  UNL1        0.4186
     23 F         151.2831  142.4485  154.3833 F       1  UNL1       -0.1659
     24 F         149.8434  141.4048  155.5401 F       1  UNL1       -0.1659
     25 F         149.7282  143.5080  153.4039 F       1  UNL1       -0.1659
     26 C         145.2231  144.6742  153.3479 C.3     1  UNL1        0.4186
     27 F         144.4391  145.7751  152.6972 F       1  UNL1       -0.1659
     28 F         146.4939  145.4303  153.0960 F       1  UNL1       -0.1659
     29 F         143.9523  143.9181  153.5998 F       1  UNL1       -0.1659
     30 O         139.8125  141.4347  164.5197 O.3     1  UNL1       -0.4534
     31 C         139.3740  140.1443  168.2470 C.ar    1  UNL1        0.1375
     32 C         139.8586  140.9368  167.0692 C.ar    1  UNL1        0.0612
     33 C         139.3280  140.6423  165.6975 C.ar    1  UNL1        0.1485
     34 C         138.3127  139.5551  165.5035 C.ar    1  UNL1        0.0582
     35 C         137.8282  138.7627  166.6813 C.ar    1  UNL1        0.1021
     36 N         138.3588  139.0573  168.0530 N.ar    1  UNL1       -0.2391
     37 C         141.5160  141.7577  171.1726 C.3     1  UNL1        0.1110
     38 N         140.9853  141.4631  169.8009 N.am    1  UNL1       -0.2979
     39 C         139.9046  140.4389  169.6187 C.2     1  UNL1        0.2637
     40 O         139.3546  139.7093  170.8083 O.2     1  UNL1       -0.2685
     41 H         141.3463  141.9420  169.0201 H       1  UNL1        0.1498
@<TRIPOS>BOND
     1    37    38    1
     2    38    39   am
     3    39    40    2
     4    39    31    1
     5    31    32   ar
     6    32    33   ar
     7    33    30    1
     8    30     1    1
     9     1     2   ar
    10     2     3   ar
    11     3     4   ar
    12     4     5   ar
    13     5     6   ar
    14     6    10    1
    15    10    11   am
    16    11    12    2
    17    11    13   am
    18    13    16    1
    19    16    17   ar
    20    17    18   ar
    21    18    22    1
    22    22    23    1
    23    22    24    1
    24    22    25    1
    25    18    19   ar
    26    19    20   ar
    27    20    26    1
    28    26    27    1
    29    26    28    1
    30    26    29    1
    31    20    21   ar
    32     6     7   ar
    33     7     8   ar
    34     8     9   ar
    35    33    34   ar
    36    34    35   ar
    37    35    36   ar
    38    36    31   ar
    39     9     1   ar
    40     8     4   ar
    41    21    16   ar
    42    38    41    1
    43    10    14    1
    44    13    15    1
@<TRIPOS>MOLECULE
*****
 41 44 0 0 0
SMALL
GASTEIGER

@<TRIPOS>ATOM
      1 C         140.2973  144.2993  154.7728 C.ar    1  UNL1        0.1459
      2 C         138.8099  144.3404  154.5837 C.ar    1  UNL1        0.0391
      3 C         137.9375  143.3378  155.2791 C.ar    1  UNL1        0.0228
      4 C         138.5525  142.2941  156.1636 C.ar    1  UNL1        0.0894
      5 N         137.9515  141.1831  156.9727 N.ar    1  UNL1       -0.2239
      6 C         139.0675  140.4555  157.6619 C.ar    1  UNL1        0.1667
      7 S         140.3582  141.1167  157.2787 S.2     1  UNL1       -0.0512
      8 C         140.0400  142.2530  156.3528 C.ar    1  UNL1        0.0528
      9 C         140.9123  143.2556  155.6574 C.ar    1  UNL1        0.0456
     10 N         138.9189  139.2739  158.5741 N.am    1  UNL1       -0.2482
     11 C         139.3856  139.3616  159.9970 C.2     1  UNL1        0.3096
     12 O         140.0008  140.6308  160.5076 O.2     1  UNL1       -0.2521
     13 N         139.2370  138.1802  160.9092 N.am    1  UNL1       -0.2680
     14 H         138.5151  138.4410  158.2389 H       1  UNL1        0.1583
     15 H         138.8332  137.3473  160.5740 H       1  UNL1        0.1564
     16 C         139.7037  138.2679  162.3320 C.ar    1  UNL1        0.0515
     17 C         141.1647  138.4239  162.6339 C.ar    1  UNL1        0.0185
     18 C         141.6314  138.5116  164.0568 C.ar    1  UNL1        0.0726
     19 C         140.6371  138.4433  165.1777 C.ar    1  UNL1        0.0078
     20 C         139.1761  138.2874  164.8759 C.ar    1  UNL1        0.0726
     21 C         138.7094  138.1997  163.4530 C.ar    1  UNL1        0.0185
     22 C         143.0924  138.6675  164.3586 C.3     1  UNL1        0.4186
     23 F         144.5534  138.8234  164.6605 F       1  UNL1       -0.1659
     24 F         143.3219  139.1973  162.9741 F       1  UNL1       -0.1659
     25 F         142.8629  138.1377  165.7430 F       1  UNL1       -0.1659
     26 C         138.1817  138.2191  165.9969 C.3     1  UNL1        0.4186
     27 F         137.1873  138.1510  167.1178 F       1  UNL1       -0.1659
     28 F         138.1442  139.7175  166.0547 F       1  UNL1       -0.1659
     29 F         138.2192  136.7207  165.9390 F       1  UNL1       -0.1659
     30 O         141.1698  145.3020  154.0774 O.3     1  UNL1       -0.4534
     31 C         139.4428  148.8144  154.7336 C.ar    1  UNL1        0.1375
     32 C         139.9357  147.4145  154.9516 C.ar    1  UNL1        0.0612
     33 C         140.6769  146.7018  153.8595 C.ar    1  UNL1        0.1485
     34 C         140.9252  147.3890  152.5494 C.ar    1  UNL1        0.0582
     35 C         140.4323  148.7888  152.3315 C.ar    1  UNL1        0.1021
     36 N         139.6911  149.5015  153.4236 N.ar    1  UNL1       -0.2391
     37 C         137.8421  149.6141  158.2760 C.3     1  UNL1        0.1110
     38 N         138.5833  148.9014  157.1839 N.am    1  UNL1       -0.2979
     39 C         138.7016  149.5271  155.8257 C.2     1  UNL1        0.2637
     40 O         138.0788  150.8655  155.5597 O.2     1  UNL1       -0.2685
     41 H         138.9920  148.0229  157.3585 H       1  UNL1        0.1498
@<TRIPOS>BOND
     1    37    38    1
     2    38    39   am
     3    39    40    2
     4    39    31    1
     5    31    32   ar
     6    32    33   ar
     7    33    30    1
     8    30     1    1
     9     1     2   ar
    10     2     3   ar
    11     3     4   ar
    12     4     5   ar
    13     5     6   ar
    14     6    10    1
    15    10    11   am
    16    11    12    2
    17    11    13   am
    18    13    16    1
    19    16    17   ar
    20    17    18   ar
    21    18    22    1
    22    22    23    1
    23    22    24    1
    24    22    25    1
    25    18    19   ar
    26    19    20   ar
    27    20    26    1
    28    26    27    1
    29    26    28    1
    30    26    29    1
    31    20    21   ar
    32     6     7   ar
    33     7     8   ar
    34     8     9   ar
    35    33    34   ar
    36    34    35   ar
    37    35    36   ar
    38    36    31   ar
    39     9     1   ar
    40     8     4   ar
    41    21    16   ar
    42    38    41    1
    43    10    14    1
    44    13    15    1
