@<TRIPOS>MOLECULE
*****
 27 30 0 0 0
SMALL
GASTEIGER

@<TRIPOS>ATOM
      1 C         139.9571  140.7536  166.9686 C.ar    1  UNL1        0.0014
      2 C         138.8740  139.7565  166.6812 C.ar    1  UNL1        0.0000
      3 C         138.1457  139.7971  165.3705 C.ar    1  UNL1       -0.0001
      4 C         138.5005  140.8348  164.3472 C.ar    1  UNL1        0.0017
      5 C         139.5837  141.8320  164.6346 C.ar    1  UNL1        0.0437
      6 C         140.3119  141.7914  165.9453 C.ar    1  UNL1        0.0017
      7 C         139.9385  142.8698  163.6113 C.3     1  UNL1        0.2764
      8 N         140.1013  144.0906  162.7552 N.2     1  UNL1       -0.2227
      9 C         141.0463  143.7523  161.6405 C.2     1  UNL1        0.1396
     10 C         141.4919  144.6810  160.5500 C.3     1  UNL1        0.0597
     11 C         141.4676  142.3225  161.8077 C.2     1  UNL1        0.3285
     12 N         142.4083  141.5702  160.9138 N.pl3   1  UNL1       -0.2454
     13 N         140.7829  141.7770  163.0258 N.2     1  UNL1       -0.0450
     14 H         142.8096  142.0173  160.1339 H       1  UNL1        0.2885
     15 H         142.6245  140.6294  161.1071 H       1  UNL1        0.2885
     16 C         139.0199  143.7456  164.4108 C.3     1  UNL1        0.0715
     17 C         138.8160  144.8088  165.4491 C.3     1  UNL1        0.0068
     18 C         137.6328  144.1992  164.7573 C.3     1  UNL1        0.0068
     19 C         142.2122  139.4599  169.9671 C.ar    1  UNL1        0.0608
     20 C         142.1419  140.6318  170.9007 C.ar    1  UNL1        0.1071
     21 N         141.3433  141.8443  170.5237 N.ar    1  UNL1       -0.2417
     22 C         140.6151  141.8849  169.2130 C.ar    1  UNL1        0.0989
     23 C         140.6854  140.7130  168.2794 C.ar    1  UNL1        0.0198
     24 C         141.4839  139.5005  168.6564 C.ar    1  UNL1        0.0113
     25 C         144.6079  135.8224  171.0982 C.3     1  UNL1        0.0903
     26 C         143.8093  137.0349  170.7212 C.1     1  UNL1       -0.0853
     27 C         143.0108  138.2474  170.3441 C.1     1  UNL1       -0.0628
@<TRIPOS>BOND
     1    25    26    1
     2    26    27    3
     3    27    19    1
     4    19    20   ar
     5    20    21   ar
     6    21    22   ar
     7    22    23   ar
     8    23     1    1
     9     1     2   ar
    10     2     3   ar
    11     3     4   ar
    12     4     5   ar
    13     5     7    1
    14     7    16    1
    15    16    17    1
    16    17    18    1
    17     7     8    1
    18     8     9    2
    19     9    10    1
    20     9    11    1
    21    11    12    1
    22    11    13    2
    23     5     6   ar
    24    23    24   ar
    25    24    19   ar
    26     6     1   ar
    27    13     7    1
    28    18    16    1
    29    12    14    1
    30    12    15    1
@<TRIPOS>MOLECULE
*****
 27 30 0 0 0
SMALL
GASTEIGER

@<TRIPOS>ATOM
      1 C         141.9939  140.6633  165.9185 C.ar    1  UNL1        0.0014
      2 C         142.4796  139.5476  165.0414 C.ar    1  UNL1        0.0000
      3 C         142.6235  139.7634  163.5639 C.ar    1  UNL1       -0.0001
      4 C         142.2817  141.0949  162.9636 C.ar    1  UNL1        0.0017
      5 C         141.7961  142.2106  163.8408 C.ar    1  UNL1        0.0437
      6 C         141.6522  141.9948  165.3182 C.ar    1  UNL1        0.0017
      7 C         141.4543  143.5421  163.2406 C.3     1  UNL1        0.2764
      8 N         141.4167  144.9352  162.6856 N.2     1  UNL1       -0.2227
      9 C         140.0101  145.2233  162.2513 C.2     1  UNL1        0.1396
     10 C         139.5211  146.5019  161.6381 C.3     1  UNL1        0.0597
     11 C         139.1785  144.0083  162.5378 C.2     1  UNL1        0.3285
     12 N         137.7118  143.8586  162.2614 N.pl3   1  UNL1       -0.2454
     13 N         140.0710  142.9693  163.1492 N.2     1  UNL1       -0.0450
     14 H         137.2091  144.6013  161.8553 H       1  UNL1        0.2885
     15 H         137.2518  143.0176  162.4862 H       1  UNL1        0.2885
     16 C         142.9091  143.8366  163.4574 C.3     1  UNL1        0.0715
     17 C         144.0704  144.0323  164.3864 C.3     1  UNL1        0.0068
     18 C         144.2673  144.1510  162.9041 C.3     1  UNL1        0.0068
     19 C         142.4236  139.0948  169.5386 C.ar    1  UNL1        0.0608
     20 C         141.5623  140.0159  170.3507 C.ar    1  UNL1        0.1071
     21 N         140.8448  141.1529  169.6854 N.ar    1  UNL1       -0.2417
     22 C         140.9887  141.3687  168.2080 C.ar    1  UNL1        0.0989
     23 C         141.8500  140.4475  167.3959 C.ar    1  UNL1        0.0198
     24 C         142.5675  139.3106  168.0612 C.ar    1  UNL1        0.0113
     25 C         144.5760  135.6839  171.5344 C.3     1  UNL1        0.0903
     26 C         143.8585  136.8209  170.8691 C.1     1  UNL1       -0.0853
     27 C         143.1411  137.9578  170.2039 C.1     1  UNL1       -0.0628
@<TRIPOS>BOND
     1    25    26    1
     2    26    27    3
     3    27    19    1
     4    19    20   ar
     5    20    21   ar
     6    21    22   ar
     7    22    23   ar
     8    23     1    1
     9     1     2   ar
    10     2     3   ar
    11     3     4   ar
    12     4     5   ar
    13     5     7    1
    14     7    16    1
    15    16    17    1
    16    17    18    1
    17     7     8    1
    18     8     9    2
    19     9    10    1
    20     9    11    1
    21    11    12    1
    22    11    13    2
    23     5     6   ar
    24    23    24   ar
    25    24    19   ar
    26     6     1   ar
    27    13     7    1
    28    18    16    1
    29    12    14    1
    30    12    15    1
@<TRIPOS>MOLECULE
*****
 27 30 0 0 0
SMALL
GASTEIGER

@<TRIPOS>ATOM
      1 C         138.9177  140.8582  164.9492 C.ar    1  UNL1        0.0014
      2 C         138.0711  139.7115  165.4164 C.ar    1  UNL1        0.0000
      3 C         138.3005  139.1137  166.7729 C.ar    1  UNL1       -0.0001
      4 C         139.3764  139.6628  167.6623 C.ar    1  UNL1        0.0017
      5 C         140.2229  140.8096  167.1951 C.ar    1  UNL1        0.0437
      6 C         139.9936  141.4073  165.8386 C.ar    1  UNL1        0.0017
      7 C         141.2988  141.3587  168.0844 C.3     1  UNL1        0.2764
      8 N         142.5525  141.6870  168.8397 N.2     1  UNL1       -0.2227
      9 C         142.2519  142.8312  169.7619 C.2     1  UNL1        0.1396
     10 C         143.2207  143.4822  170.7041 C.3     1  UNL1        0.0597
     11 C         140.8124  143.2100  169.5766 C.2     1  UNL1        0.3285
     12 N         140.0890  144.3064  170.3009 N.pl3   1  UNL1       -0.2454
     13 N         140.2234  142.3000  168.5399 N.2     1  UNL1       -0.0450
     14 H         140.5642  144.8527  170.9679 H       1  UNL1        0.2885
     15 H         139.1390  144.4796  170.1094 H       1  UNL1        0.2885
     16 C         142.1494  140.3026  167.4431 C.3     1  UNL1        0.0715
     17 C         142.8704  139.7682  166.2412 C.3     1  UNL1        0.0068
     18 C         142.9014  139.0080  167.5340 C.3     1  UNL1        0.0068
     19 C         138.7628  141.2547  161.0035 C.ar    1  UNL1        0.0608
     20 C         138.2297  142.6513  160.8797 C.ar    1  UNL1        0.1071
     21 N         137.9259  143.4502  162.1123 N.ar    1  UNL1       -0.2417
     22 C         138.1552  142.8525  163.4688 C.ar    1  UNL1        0.0989
     23 C         138.6883  141.4560  163.5927 C.ar    1  UNL1        0.0198
     24 C         138.9921  140.6571  162.3600 C.ar    1  UNL1        0.0113
     25 C         139.6741  138.8581  157.3055 C.3     1  UNL1        0.0903
     26 C         139.3703  139.6570  158.5381 C.1     1  UNL1       -0.0853
     27 C         139.0665  140.4559  159.7708 C.1     1  UNL1       -0.0628
@<TRIPOS>BOND
     1    25    26    1
     2    26    27    3
     3    27    19    1
     4    19    20   ar
     5    20    21   ar
     6    21    22   ar
     7    22    23   ar
     8    23     1    1
     9     1     2   ar
    10     2     3   ar
    11     3     4   ar
    12     4     5   ar
    13     5     7    1
    14     7    16    1
    15    16    17    1
    16    17    18    1
    17     7     8    1
    18     8     9    2
    19     9    10    1
    20     9    11    1
    21    11    12    1
    22    11    13    2
    23     5     6   ar
    24    23    24   ar
    25    24    19   ar
    26     6     1   ar
    27    13     7    1
    28    18    16    1
    29    12    14    1
    30    12    15    1
@<TRIPOS>MOLECULE
*****
 27 30 0 0 0
SMALL
GASTEIGER

@<TRIPOS>ATOM
      1 C         141.5516  141.3254  166.5114 C.ar    1  UNL1        0.0014
      2 C         142.1679  140.1259  165.8547 C.ar    1  UNL1        0.0000
      3 C         142.4994  140.1590  164.3921 C.ar    1  UNL1       -0.0001
      4 C         142.2146  141.3917  163.5863 C.ar    1  UNL1        0.0017
      5 C         141.5983  142.5913  164.2431 C.ar    1  UNL1        0.0437
      6 C         141.2668  142.5581  165.7056 C.ar    1  UNL1        0.0017
      7 C         141.3135  143.8240  163.4373 C.3     1  UNL1        0.2764
      8 N         141.3368  145.1073  162.6610 N.2     1  UNL1       -0.2227
      9 C         139.9370  145.4008  162.2087 C.2     1  UNL1        0.1396
     10 C         139.5020  146.5879  161.4014 C.3     1  UNL1        0.0597
     11 C         139.0487  144.2990  162.7055 C.2     1  UNL1        0.3285
     12 N         137.5694  144.1908  162.4822 N.pl3   1  UNL1       -0.2454
     13 N         139.8994  143.3245  163.4648 N.2     1  UNL1       -0.0450
     14 H         137.0972  144.8847  161.9677 H       1  UNL1        0.2885
     15 H         137.0707  143.4259  162.8502 H       1  UNL1        0.2885
     16 C         142.7872  144.0658  163.5782 C.3     1  UNL1        0.0715
     17 C         143.9712  144.4105  164.4322 C.3     1  UNL1        0.0068
     18 C         144.1556  144.1399  162.9684 C.3     1  UNL1        0.0068
     19 C         139.6217  140.6058  169.9037 C.ar    1  UNL1        0.0608
     20 C         140.5571  141.2259  170.8990 C.ar    1  UNL1        0.1071
     21 N         141.8239  141.8791  170.4317 N.ar    1  UNL1       -0.2417
     22 C         142.1555  141.9123  168.9692 C.ar    1  UNL1        0.0989
     23 C         141.2201  141.2922  167.9740 C.ar    1  UNL1        0.0198
     24 C         139.9532  140.6390  168.4412 C.ar    1  UNL1        0.0113
     25 C         135.8211  138.6461  171.3053 C.3     1  UNL1        0.0903
     26 C         137.0879  139.2993  170.8381 C.1     1  UNL1       -0.0853
     27 C         138.3548  139.9526  170.3709 C.1     1  UNL1       -0.0628
@<TRIPOS>BOND
     1    25    26    1
     2    26    27    3
     3    27    19    1
     4    19    20   ar
     5    20    21   ar
     6    21    22   ar
     7    22    23   ar
     8    23     1    1
     9     1     2   ar
    10     2     3   ar
    11     3     4   ar
    12     4     5   ar
    13     5     7    1
    14     7    16    1
    15    16    17    1
    16    17    18    1
    17     7     8    1
    18     8     9    2
    19     9    10    1
    20     9    11    1
    21    11    12    1
    22    11    13    2
    23     5     6   ar
    24    23    24   ar
    25    24    19   ar
    26     6     1   ar
    27    13     7    1
    28    18    16    1
    29    12    14    1
    30    12    15    1
@<TRIPOS>MOLECULE
*****
 27 30 0 0 0
SMALL
GASTEIGER

@<TRIPOS>ATOM
      1 C         139.1976  141.1328  164.5835 C.ar    1  UNL1        0.0014
      2 C         138.2317  140.0411  164.9372 C.ar    1  UNL1        0.0000
      3 C         138.2925  139.3950  166.2896 C.ar    1  UNL1       -0.0001
      4 C         139.3193  139.8405  167.2882 C.ar    1  UNL1        0.0017
      5 C         140.2853  140.9323  166.9344 C.ar    1  UNL1        0.0437
      6 C         140.2244  141.5784  165.5821 C.ar    1  UNL1        0.0017
      7 C         141.3121  141.3778  167.9330 C.3     1  UNL1        0.2764
      8 N         142.5095  141.5893  168.8113 N.2     1  UNL1       -0.2227
      9 C         142.2188  142.7465  169.7204 C.2     1  UNL1        0.1396
     10 C         143.1429  143.3025  170.7630 C.3     1  UNL1        0.0597
     11 C         140.8418  143.2502  169.4039 C.2     1  UNL1        0.3285
     12 N         140.1472  144.3982  170.0744 N.pl3   1  UNL1       -0.2454
     13 N         140.2814  142.4043  168.2992 N.2     1  UNL1       -0.0450
     14 H         140.5998  144.8952  170.7937 H       1  UNL1        0.2885
     15 H         139.2386  144.6547  169.7952 H       1  UNL1        0.2885
     16 C         142.1281  140.2582  167.3579 C.3     1  UNL1        0.0715
     17 C         142.7202  139.5595  166.1700 C.3     1  UNL1        0.0068
     18 C         142.9493  139.0178  167.5499 C.3     1  UNL1        0.0068
     19 C         140.3127  142.5162  161.0349 C.ar    1  UNL1        0.0608
     20 C         139.0152  143.0712  160.5265 C.ar    1  UNL1        0.1071
     21 N         137.7785  142.9800  161.3704 N.ar    1  UNL1       -0.2417
     22 C         137.8393  142.3339  162.7227 C.ar    1  UNL1        0.0989
     23 C         139.1368  141.7790  163.2311 C.ar    1  UNL1        0.0198
     24 C         140.3735  141.8701  162.3872 C.ar    1  UNL1        0.0113
     25 C         144.0229  142.7898  158.5031 C.3     1  UNL1        0.0903
     26 C         142.7861  142.6986  159.3470 C.1     1  UNL1       -0.0853
     27 C         141.5494  142.6074  160.1909 C.1     1  UNL1       -0.0628
@<TRIPOS>BOND
     1    25    26    1
     2    26    27    3
     3    27    19    1
     4    19    20   ar
     5    20    21   ar
     6    21    22   ar
     7    22    23   ar
     8    23     1    1
     9     1     2   ar
    10     2     3   ar
    11     3     4   ar
    12     4     5   ar
    13     5     7    1
    14     7    16    1
    15    16    17    1
    16    17    18    1
    17     7     8    1
    18     8     9    2
    19     9    10    1
    20     9    11    1
    21    11    12    1
    22    11    13    2
    23     5     6   ar
    24    23    24   ar
    25    24    19   ar
    26     6     1   ar
    27    13     7    1
    28    18    16    1
    29    12    14    1
    30    12    15    1
@<TRIPOS>MOLECULE
*****
 27 30 0 0 0
SMALL
GASTEIGER

@<TRIPOS>ATOM
      1 C         143.4554  140.5616  164.9805 C.ar    1  UNL1        0.0014
      2 C         144.0029  139.1910  165.2480 C.ar    1  UNL1        0.0000
      3 C         143.5875  138.4450  166.4813 C.ar    1  UNL1       -0.0001
      4 C         142.6245  139.0696  167.4470 C.ar    1  UNL1        0.0017
      5 C         142.0770  140.4403  167.1794 C.ar    1  UNL1        0.0437
      6 C         142.4925  141.1863  165.9462 C.ar    1  UNL1        0.0017
      7 C         141.1141  141.0649  168.1451 C.3     1  UNL1        0.2764
      8 N         139.9342  141.5419  168.9390 N.2     1  UNL1       -0.2227
      9 C         140.4439  142.4124  170.0492 C.2     1  UNL1        0.1396
     10 C         139.6059  143.1010  171.0854 C.3     1  UNL1        0.0597
     11 C         141.9388  142.4734  169.9414 C.2     1  UNL1        0.3285
     12 N         142.8581  143.2337  170.8507 N.pl3   1  UNL1       -0.2454
     13 N         142.3530  141.6406  168.7646 N.2     1  UNL1       -0.0450
     14 H         142.4891  143.7543  171.6004 H       1  UNL1        0.2885
     15 H         143.8304  143.2121  170.6979 H       1  UNL1        0.2885
     16 C         140.0765  140.3587  167.3237 C.3     1  UNL1        0.0715
     17 C         139.4277  140.0957  165.9971 C.3     1  UNL1        0.0068
     18 C         138.9282  139.3984  167.2277 C.3     1  UNL1        0.0068
     19 C         143.2890  142.8968  161.7759 C.ar    1  UNL1        0.0608
     20 C         144.7016  142.7998  161.2808 C.ar    1  UNL1        0.1071
     21 N         145.6988  141.9567  162.0189 N.ar    1  UNL1       -0.2417
     22 C         145.2835  141.2107  163.2521 C.ar    1  UNL1        0.0989
     23 C         143.8709  141.3077  163.7472 C.ar    1  UNL1        0.0198
     24 C         142.8737  142.1507  163.0091 C.ar    1  UNL1        0.0113
     25 C         140.2974  145.4259  159.5615 C.3     1  UNL1        0.0903
     26 C         141.2946  144.5829  160.2996 C.1     1  UNL1       -0.0853
     27 C         142.2918  143.7398  161.0377 C.1     1  UNL1       -0.0628
@<TRIPOS>BOND
     1    25    26    1
     2    26    27    3
     3    27    19    1
     4    19    20   ar
     5    20    21   ar
     6    21    22   ar
     7    22    23   ar
     8    23     1    1
     9     1     2   ar
    10     2     3   ar
    11     3     4   ar
    12     4     5   ar
    13     5     7    1
    14     7    16    1
    15    16    17    1
    16    17    18    1
    17     7     8    1
    18     8     9    2
    19     9    10    1
    20     9    11    1
    21    11    12    1
    22    11    13    2
    23     5     6   ar
    24    23    24   ar
    25    24    19   ar
    26     6     1   ar
    27    13     7    1
    28    18    16    1
    29    12    14    1
    30    12    15    1
@<TRIPOS>MOLECULE
*****
 27 30 0 0 0
SMALL
GASTEIGER

@<TRIPOS>ATOM
      1 C         141.3868  138.7515  164.9805 C.ar    1  UNL1        0.0014
      2 C         142.5991  137.9166  165.2687 C.ar    1  UNL1        0.0000
      3 C         143.3672  138.1235  166.5404 C.ar    1  UNL1       -0.0001
      4 C         142.9229  139.1653  167.5239 C.ar    1  UNL1        0.0017
      5 C         141.7105  140.0002  167.2357 C.ar    1  UNL1        0.0437
      6 C         140.9425  139.7933  165.9640 C.ar    1  UNL1        0.0017
      7 C         141.2662  141.0420  168.2192 C.3     1  UNL1        0.2764
      8 N         141.0580  142.2512  169.0820 N.2     1  UNL1       -0.2227
      9 C         139.8928  141.9799  169.9868 C.2     1  UNL1        0.1396
     10 C         139.3370  142.9203  171.0148 C.3     1  UNL1        0.0597
     11 C         139.3808  140.6030  169.6832 C.2     1  UNL1        0.3285
     12 N         138.2233  139.9249  170.3542 N.pl3   1  UNL1       -0.2454
     13 N         140.2296  140.0233  168.5907 N.2     1  UNL1       -0.0450
     14 H         137.7251  140.3897  171.0649 H       1  UNL1        0.2885
     15 H         137.9618  139.0151  170.0840 H       1  UNL1        0.2885
     16 C         142.3956  141.8428  167.6420 C.3     1  UNL1        0.0715
     17 C         143.6737  142.6061  167.8260 C.3     1  UNL1        0.0068
     18 C         143.0738  142.4664  166.4583 C.3     1  UNL1        0.0068
     19 C         140.5533  138.4216  161.1144 C.ar    1  UNL1        0.0608
     20 C         139.0826  138.1310  161.1653 C.ar    1  UNL1        0.1071
     21 N         138.3800  138.0472  162.4879 N.ar    1  UNL1       -0.2417
     22 C         139.1480  138.2540  163.7596 C.ar    1  UNL1        0.0989
     23 C         140.6187  138.5446  163.7087 C.ar    1  UNL1        0.0198
     24 C         141.3213  138.6284  162.3861 C.ar    1  UNL1        0.0113
     25 C         142.6612  138.6729  157.1466 C.3     1  UNL1        0.0903
     26 C         141.9585  138.5892  158.4692 C.1     1  UNL1       -0.0853
     27 C         141.2559  138.5054  159.7918 C.1     1  UNL1       -0.0628
@<TRIPOS>BOND
     1    25    26    1
     2    26    27    3
     3    27    19    1
     4    19    20   ar
     5    20    21   ar
     6    21    22   ar
     7    22    23   ar
     8    23     1    1
     9     1     2   ar
    10     2     3   ar
    11     3     4   ar
    12     4     5   ar
    13     5     7    1
    14     7    16    1
    15    16    17    1
    16    17    18    1
    17     7     8    1
    18     8     9    2
    19     9    10    1
    20     9    11    1
    21    11    12    1
    22    11    13    2
    23     5     6   ar
    24    23    24   ar
    25    24    19   ar
    26     6     1   ar
    27    13     7    1
    28    18    16    1
    29    12    14    1
    30    12    15    1
@<TRIPOS>MOLECULE
*****
 27 30 0 0 0
SMALL
GASTEIGER

@<TRIPOS>ATOM
      1 C         140.5209  140.9357  166.4942 C.ar    1  UNL1        0.0014
      2 C         139.6223  142.0623  166.0783 C.ar    1  UNL1        0.0000
      3 C         139.2187  142.2084  164.6410 C.ar    1  UNL1       -0.0001
      4 C         139.7139  141.2279  163.6196 C.ar    1  UNL1        0.0017
      5 C         140.6126  140.1012  164.0355 C.ar    1  UNL1        0.0437
      6 C         141.0161  139.9551  165.4728 C.ar    1  UNL1        0.0017
      7 C         141.1078  139.1206  163.0142 C.3     1  UNL1        0.2764
      8 N         141.3272  137.9992  162.0423 N.2     1  UNL1       -0.2227
      9 C         142.6786  138.1845  161.4182 C.2     1  UNL1        0.1396
     10 C         143.3043  137.2908  160.3887 C.3     1  UNL1        0.0597
     11 C         143.2944  139.4203  162.0043 C.2     1  UNL1        0.3285
     12 N         144.6440  139.9794  161.6639 N.pl3   1  UNL1       -0.2454
     13 N         142.3236  139.9988  162.9907 N.2     1  UNL1       -0.0450
     14 H         145.2116  139.5255  160.9997 H       1  UNL1        0.2885
     15 H         144.9622  140.8002  162.1045 H       1  UNL1        0.2885
     16 C         139.7885  138.4473  163.2512 C.3     1  UNL1        0.0715
     17 C         138.4482  138.0018  162.7461 C.3     1  UNL1        0.0068
     18 C         138.8437  137.7268  164.1667 C.3     1  UNL1        0.0068
     19 C         142.1363  139.4572  169.8040 C.ar    1  UNL1        0.0608
     20 C         141.7315  140.4973  170.8061 C.ar    1  UNL1        0.1071
     21 N         140.9232  141.6836  170.3709 N.ar    1  UNL1       -0.2417
     22 C         140.5197  141.8297  168.9336 C.ar    1  UNL1        0.0989
     23 C         140.9245  140.7896  167.9316 C.ar    1  UNL1        0.0198
     24 C         141.7328  139.6033  168.3667 C.ar    1  UNL1        0.0113
     25 C         144.5613  135.8984  171.1095 C.3     1  UNL1        0.0903
     26 C         143.7530  137.0846  170.6743 C.1     1  UNL1       -0.0853
     27 C         142.9446  138.2709  170.2392 C.1     1  UNL1       -0.0628
@<TRIPOS>BOND
     1    25    26    1
     2    26    27    3
     3    27    19    1
     4    19    20   ar
     5    20    21   ar
     6    21    22   ar
     7    22    23   ar
     8    23     1    1
     9     1     2   ar
    10     2     3   ar
    11     3     4   ar
    12     4     5   ar
    13     5     7    1
    14     7    16    1
    15    16    17    1
    16    17    18    1
    17     7     8    1
    18     8     9    2
    19     9    10    1
    20     9    11    1
    21    11    12    1
    22    11    13    2
    23     5     6   ar
    24    23    24   ar
    25    24    19   ar
    26     6     1   ar
    27    13     7    1
    28    18    16    1
    29    12    14    1
    30    12    15    1
@<TRIPOS>MOLECULE
*****
 27 30 0 0 0
SMALL
GASTEIGER

@<TRIPOS>ATOM
      1 C         140.9173  141.8889  166.8812 C.ar    1  UNL1        0.0014
      2 C         140.0566  143.0755  166.5631 C.ar    1  UNL1        0.0000
      3 C         140.0521  143.6487  165.1769 C.ar    1  UNL1       -0.0001
      4 C         140.9083  143.0353  164.1089 C.ar    1  UNL1        0.0017
      5 C         141.7690  141.8487  164.4270 C.ar    1  UNL1        0.0437
      6 C         141.7735  141.2755  165.8131 C.ar    1  UNL1        0.0017
      7 C         142.6252  141.2353  163.3590 C.3     1  UNL1        0.2764
      8 N         143.6839  140.8482  162.3694 N.2     1  UNL1       -0.2227
      9 C         143.1906  139.6549  161.6060 C.2     1  UNL1        0.1396
     10 C         143.9309  138.9378  160.5161 C.3     1  UNL1        0.0597
     11 C         141.8271  139.3045  162.1238 C.2     1  UNL1        0.3285
     12 N         140.9646  138.1756  161.6427 N.pl3   1  UNL1       -0.2454
     13 N         141.4777  140.2813  163.2072 N.2     1  UNL1       -0.0450
     14 H         141.2833  137.5851  160.9223 H       1  UNL1        0.2885
     15 H         140.0798  138.0251  162.0473 H       1  UNL1        0.2885
     16 C         143.5937  142.3176  163.7340 C.3     1  UNL1        0.0715
     17 C         144.6422  142.8588  164.6602 C.3     1  UNL1        0.0068
     18 C         144.2227  143.6510  163.4575 C.3     1  UNL1        0.0068
     19 C         141.8162  139.5802  169.9815 C.ar    1  UNL1        0.0608
     20 C         140.9309  140.1691  171.0395 C.ar    1  UNL1        0.1071
     21 N         140.0411  141.3312  170.7115 N.ar    1  UNL1       -0.2417
     22 C         140.0365  141.9045  169.3254 C.ar    1  UNL1        0.0989
     23 C         140.9218  141.3156  168.2674 C.ar    1  UNL1        0.0198
     24 C         141.8116  140.1534  168.5954 C.ar    1  UNL1        0.0113
     25 C         144.4856  136.0937  170.9657 C.3     1  UNL1        0.0903
     26 C         143.5958  137.2558  170.6376 C.1     1  UNL1       -0.0853
     27 C         142.7060  138.4180  170.3096 C.1     1  UNL1       -0.0628
@<TRIPOS>BOND
     1    25    26    1
     2    26    27    3
     3    27    19    1
     4    19    20   ar
     5    20    21   ar
     6    21    22   ar
     7    22    23   ar
     8    23     1    1
     9     1     2   ar
    10     2     3   ar
    11     3     4   ar
    12     4     5   ar
    13     5     7    1
    14     7    16    1
    15    16    17    1
    16    17    18    1
    17     7     8    1
    18     8     9    2
    19     9    10    1
    20     9    11    1
    21    11    12    1
    22    11    13    2
    23     5     6   ar
    24    23    24   ar
    25    24    19   ar
    26     6     1   ar
    27    13     7    1
    28    18    16    1
    29    12    14    1
    30    12    15    1
