@<TRIPOS>MOLECULE
*****
 31 35 0 0 0
SMALL
GASTEIGER

@<TRIPOS>ATOM
      1 N         139.8788  137.8288  164.1071 N.3     1  UNL1       -0.2703
      2 C         139.4192  137.8900  162.6806 C.3     1  UNL1        0.0727
      3 C         140.4160  138.1015  161.5799 C.3     1  UNL1        0.0260
      4 C         141.8724  138.2519  161.9057 C.3     1  UNL1        0.0737
      5 C         142.3321  138.1908  163.3322 C.3     1  UNL1        0.0260
      6 C         141.3353  137.9792  164.4329 C.3     1  UNL1        0.0727
      7 C         143.3533  138.4179  162.0772 C.3     1  UNL1        0.0306
      8 C         143.9596  138.6032  160.7177 C.3     1  UNL1        0.0987
      9 N         142.8532  138.5516  159.7059 N.am    1  UNL1       -0.2567
     10 C         141.5634  138.3345  160.4402 C.2     1  UNL1        0.2286
     11 O         140.2033  138.2201  159.8182 O.2     1  UNL1       -0.2746
     12 C         143.0094  138.6925  158.2208 C.ar    1  UNL1        0.0816
     13 C         143.3946  139.9442  157.4896 C.ar    1  UNL1        0.1227
     14 N         143.4311  139.6316  156.0230 N.ar    1  UNL1       -0.2063
     15 S         143.0685  138.1867  155.8477 S.2     1  UNL1        0.0149
     16 C         142.8079  137.6063  157.2062 C.ar    1  UNL1        0.0712
     17 C         138.8820  137.6173  165.2079 C.3     1  UNL1        0.1063
     18 C         138.1647  138.7911  165.8060 C.3     1  UNL1        0.1483
     19 O         137.3081  138.6058  167.0233 O.3     1  UNL1       -0.3786
     20 H         136.9200  139.4575  167.2783 H       1  UNL1        0.2108
     21 C         140.0648  140.7900  166.9867 C.3     1  UNL1        0.0306
     22 C         139.2540  141.1496  165.7770 C.ar    1  UNL1       -0.0238
     23 C         138.3040  140.1502  165.1867 C.ar    1  UNL1        0.0015
     24 C         137.4932  140.5098  163.9770 C.ar    1  UNL1       -0.0020
     25 C         137.6325  141.8688  163.3577 C.ar    1  UNL1        0.0060
     26 C         138.5825  142.8683  163.9481 C.ar    1  UNL1        0.0748
     27 C         139.3933  142.5086  165.1577 C.ar    1  UNL1        0.0233
     28 C         140.2419  143.6926  165.5156 C.3     1  UNL1        0.2352
     29 O         139.9557  144.7839  164.5272 O.3     1  UNL1       -0.4404
     30 C         138.9301  144.2744  163.5584 C.2     1  UNL1        0.3413
     31 O         138.3533  145.0372  162.4027 O.2     1  UNL1       -0.2449
@<TRIPOS>BOND
     1    21    22    1
     2    22    23   ar
     3    23    18    1
     4    18    19    1
     5    18    17    1
     6    17     1    1
     7     1     2    1
     8     2     3    1
     9     3     4    1
    10     4     5    1
    11     5     6    1
    12     4     7    1
    13     7     8    1
    14     8     9    1
    15     9    12    1
    16    12    13   ar
    17    13    14   ar
    18    14    15   ar
    19    15    16   ar
    20     9    10   am
    21    10    11    2
    22    23    24   ar
    23    24    25   ar
    24    25    26   ar
    25    26    27   ar
    26    27    28    1
    27    28    29    1
    28    29    30    1
    29    30    31    2
    30    27    22   ar
    31     6     1    1
    32    16    12   ar
    33    30    26    1
    34    10     4    1
    35    19    20    1
@<TRIPOS>MOLECULE
*****
 31 35 0 0 0
SMALL
GASTEIGER

@<TRIPOS>ATOM
      1 N         138.6635  141.3266  163.9858 N.3     1  UNL1       -0.2703
      2 C         139.1281  141.0761  162.5817 C.3     1  UNL1        0.0727
      3 C         139.5138  142.2286  161.7026 C.3     1  UNL1        0.0260
      4 C         139.4349  143.6316  162.2275 C.3     1  UNL1        0.0737
      5 C         138.9703  143.8820  163.6315 C.3     1  UNL1        0.0260
      6 C         138.5846  142.7295  164.5107 C.3     1  UNL1        0.0727
      7 C         139.4078  145.0813  162.6117 C.3     1  UNL1        0.0306
      8 C         139.8716  145.8825  161.4314 C.3     1  UNL1        0.0987
      9 N         140.1854  144.9278  160.3177 N.am    1  UNL1       -0.2567
     10 C         139.9155  143.5368  160.8096 C.2     1  UNL1        0.2286
     11 O         140.0947  142.2727  160.0222 O.2     1  UNL1       -0.2746
     12 C         140.6818  145.2991  158.9518 C.ar    1  UNL1        0.0816
     13 C         139.9501  146.1366  157.9453 C.ar    1  UNL1        0.1227
     14 N         140.8132  146.2532  156.7241 N.ar    1  UNL1       -0.2063
     15 S         142.0785  145.4878  156.9758 S.2     1  UNL1        0.0149
     16 C         141.9972  144.8981  158.3527 C.ar    1  UNL1        0.0712
     17 C         138.2777  140.1740  164.8650 C.3     1  UNL1        0.1063
     18 C         139.3094  139.5121  165.7295 C.3     1  UNL1        0.1483
     19 O         139.9585  138.2368  165.2798 O.3     1  UNL1       -0.3786
     20 H         140.5963  137.9448  165.9498 H       1  UNL1        0.2108
     21 C         141.7263  141.2800  165.9129 C.3     1  UNL1        0.0306
     22 C         140.9005  141.0094  167.1355 C.ar    1  UNL1       -0.0238
     23 C         139.6921  140.1255  167.0438 C.ar    1  UNL1        0.0015
     24 C         138.8663  139.8550  168.2665 C.ar    1  UNL1       -0.0020
     25 C         139.2488  140.4683  169.5808 C.ar    1  UNL1        0.0060
     26 C         140.4572  141.3522  169.6724 C.ar    1  UNL1        0.0748
     27 C         141.2830  141.6228  168.4498 C.ar    1  UNL1        0.0233
     28 C         142.4118  142.5286  168.8440 C.3     1  UNL1        0.2352
     29 O         142.2837  142.8178  170.3102 O.3     1  UNL1       -0.4404
     30 C         141.0757  142.0908  170.8222 C.2     1  UNL1        0.3413
     31 O         140.5741  142.1006  172.2359 O.2     1  UNL1       -0.2449
@<TRIPOS>BOND
     1    21    22    1
     2    22    23   ar
     3    23    18    1
     4    18    19    1
     5    18    17    1
     6    17     1    1
     7     1     2    1
     8     2     3    1
     9     3     4    1
    10     4     5    1
    11     5     6    1
    12     4     7    1
    13     7     8    1
    14     8     9    1
    15     9    12    1
    16    12    13   ar
    17    13    14   ar
    18    14    15   ar
    19    15    16   ar
    20     9    10   am
    21    10    11    2
    22    23    24   ar
    23    24    25   ar
    24    25    26   ar
    25    26    27   ar
    26    27    28    1
    27    28    29    1
    28    29    30    1
    29    30    31    2
    30    27    22   ar
    31     6     1    1
    32    16    12   ar
    33    30    26    1
    34    10     4    1
    35    19    20    1
@<TRIPOS>MOLECULE
*****
 31 35 0 0 0
SMALL
GASTEIGER

@<TRIPOS>ATOM
      1 N         138.4838  139.3173  164.9078 N.3     1  UNL1       -0.2703
      2 C         138.0219  140.5642  164.2139 C.3     1  UNL1        0.0727
      3 C         138.0715  140.6519  162.7173 C.3     1  UNL1        0.0260
      4 C         138.5831  139.4925  161.9147 C.3     1  UNL1        0.0737
      5 C         139.0451  138.2456  162.6086 C.3     1  UNL1        0.0260
      6 C         138.9955  138.1579  164.1052 C.3     1  UNL1        0.0727
      7 C         139.0671  138.4201  160.9842 C.3     1  UNL1        0.0306
      8 C         138.9406  138.9328  159.5802 C.3     1  UNL1        0.0987
      9 N         138.3785  140.3221  159.6429 N.am    1  UNL1       -0.2567
     10 C         138.1576  140.6680  161.0857 C.2     1  UNL1        0.2286
     11 O         137.6076  141.9622  161.6078 O.2     1  UNL1       -0.2746
     12 C         138.0882  141.2096  158.4691 C.ar    1  UNL1        0.0816
     13 C         138.6394  142.5869  158.2476 C.ar    1  UNL1        0.1227
     14 N         138.0877  143.1042  156.9522 N.ar    1  UNL1       -0.2063
     15 S         137.1955  142.0465  156.3730 S.2     1  UNL1        0.0149
     16 C         137.1959  140.8756  157.3106 C.ar    1  UNL1        0.0712
     17 C         138.4342  139.2296  166.4045 C.3     1  UNL1        0.1063
     18 C         139.6000  139.7005  167.2225 C.3     1  UNL1        0.1483
     19 O         139.4931  139.7573  168.7176 O.3     1  UNL1       -0.3786
     20 H         140.3284  140.0810  169.0894 H       1  UNL1        0.2108
     21 C         140.0651  142.5839  166.5371 C.3     1  UNL1        0.0306
     22 C         141.1053  141.5563  166.2026 C.ar    1  UNL1       -0.0238
     23 C         140.8728  140.1146  166.5453 C.ar    1  UNL1        0.0015
     24 C         141.9131  139.0870  166.2108 C.ar    1  UNL1       -0.0020
     25 C         143.1859  139.5011  165.5337 C.ar    1  UNL1        0.0060
     26 C         143.4184  140.9428  165.1911 C.ar    1  UNL1        0.0748
     27 C         142.3781  141.9704  165.5255 C.ar    1  UNL1        0.0233
     28 C         142.8833  143.3069  165.0689 C.3     1  UNL1        0.2352
     29 O         144.2357  143.1054  164.4522 O.3     1  UNL1       -0.4404
     30 C         144.5664  141.6442  164.5278 C.2     1  UNL1        0.3413
     31 O         145.8243  140.9980  164.0277 O.2     1  UNL1       -0.2449
@<TRIPOS>BOND
     1    21    22    1
     2    22    23   ar
     3    23    18    1
     4    18    19    1
     5    18    17    1
     6    17     1    1
     7     1     2    1
     8     2     3    1
     9     3     4    1
    10     4     5    1
    11     5     6    1
    12     4     7    1
    13     7     8    1
    14     8     9    1
    15     9    12    1
    16    12    13   ar
    17    13    14   ar
    18    14    15   ar
    19    15    16   ar
    20     9    10   am
    21    10    11    2
    22    23    24   ar
    23    24    25   ar
    24    25    26   ar
    25    26    27   ar
    26    27    28    1
    27    28    29    1
    28    29    30    1
    29    30    31    2
    30    27    22   ar
    31     6     1    1
    32    16    12   ar
    33    30    26    1
    34    10     4    1
    35    19    20    1
@<TRIPOS>MOLECULE
*****
 31 35 0 0 0
SMALL
GASTEIGER

@<TRIPOS>ATOM
      1 N         139.9405  138.3242  163.0559 N.3     1  UNL1       -0.2703
      2 C         139.1808  139.0510  164.1258 C.3     1  UNL1        0.0727
      3 C         139.8468  139.3749  165.4302 C.3     1  UNL1        0.0260
      4 C         141.2726  138.9720  165.6647 C.3     1  UNL1        0.0737
      5 C         142.0323  138.2453  164.5948 C.3     1  UNL1        0.0260
      6 C         141.3662  137.9214  163.2905 C.3     1  UNL1        0.0727
      7 C         142.6848  138.6348  166.0412 C.3     1  UNL1        0.0306
      8 C         142.9284  139.1444  167.4309 C.3     1  UNL1        0.0987
      9 N         141.6666  139.7966  167.9132 N.am    1  UNL1       -0.2567
     10 C         140.6433  139.6901  166.8217 C.2     1  UNL1        0.2286
     11 O         139.2375  140.2102  166.8772 O.2     1  UNL1       -0.2746
     12 C         141.4638  140.4420  169.2519 C.ar    1  UNL1        0.0816
     13 C         140.5180  139.9785  170.3199 C.ar    1  UNL1        0.1227
     14 N         140.6408  140.9142  171.4858 N.ar    1  UNL1       -0.2063
     15 S         141.6625  141.9560  171.1384 S.2     1  UNL1        0.0149
     16 C         142.1711  141.6641  169.7578 C.ar    1  UNL1        0.0712
     17 C         139.2744  138.0003  161.7515 C.3     1  UNL1        0.1063
     18 C         139.4070  138.9382  160.5884 C.3     1  UNL1        0.1483
     19 O         139.4885  138.3952  159.1926 O.3     1  UNL1       -0.3786
     20 H         139.5707  139.1296  158.5642 H       1  UNL1        0.2108
     21 C         142.0444  140.3680  160.5793 C.3     1  UNL1        0.0306
     22 C         140.7768  141.1340  160.8167 C.ar    1  UNL1       -0.0238
     23 C         139.4581  140.4192  160.8213 C.ar    1  UNL1        0.0015
     24 C         138.1905  141.1852  161.0586 C.ar    1  UNL1       -0.0020
     25 C         138.2416  142.6661  161.2914 C.ar    1  UNL1        0.0060
     26 C         139.5602  143.3810  161.2869 C.ar    1  UNL1        0.0748
     27 C         140.8278  142.6150  161.0495 C.ar    1  UNL1        0.0233
     28 C         141.9716  143.5840  161.1015 C.3     1  UNL1        0.2352
     29 O         141.4110  144.9489  161.3710 O.3     1  UNL1       -0.4404
     30 C         139.9206  144.8234  161.4855 C.2     1  UNL1        0.3413
     31 O         138.9594  145.9437  161.7520 O.2     1  UNL1       -0.2449
@<TRIPOS>BOND
     1    21    22    1
     2    22    23   ar
     3    23    18    1
     4    18    19    1
     5    18    17    1
     6    17     1    1
     7     1     2    1
     8     2     3    1
     9     3     4    1
    10     4     5    1
    11     5     6    1
    12     4     7    1
    13     7     8    1
    14     8     9    1
    15     9    12    1
    16    12    13   ar
    17    13    14   ar
    18    14    15   ar
    19    15    16   ar
    20     9    10   am
    21    10    11    2
    22    23    24   ar
    23    24    25   ar
    24    25    26   ar
    25    26    27   ar
    26    27    28    1
    27    28    29    1
    28    29    30    1
    29    30    31    2
    30    27    22   ar
    31     6     1    1
    32    16    12   ar
    33    30    26    1
    34    10     4    1
    35    19    20    1
@<TRIPOS>MOLECULE
*****
 31 35 0 0 0
SMALL
GASTEIGER

@<TRIPOS>ATOM
      1 N         144.9856  141.4975  163.2449 N.3     1  UNL1       -0.2703
      2 C         144.7009  141.8417  161.8130 C.3     1  UNL1        0.0727
      3 C         144.0935  140.8168  160.9017 C.3     1  UNL1        0.0260
      4 C         143.7707  139.4476  161.4224 C.3     1  UNL1        0.0737
      5 C         144.0554  139.1033  162.8543 C.3     1  UNL1        0.0260
      6 C         144.6628  140.1283  163.7655 C.3     1  UNL1        0.0727
      7 C         143.3958  138.0448  161.7988 C.3     1  UNL1        0.0306
      8 C         142.8249  137.3756  160.5837 C.3     1  UNL1        0.0987
      9 N         142.8469  138.3649  159.4563 N.am    1  UNL1       -0.2567
     10 C         143.4315  139.6454  159.9746 C.2     1  UNL1        0.2286
     11 O         143.6401  140.9030  159.1841 O.2     1  UNL1       -0.2746
     12 C         142.3685  138.1172  158.0565 C.ar    1  UNL1        0.0816
     13 C         141.2545  138.8446  157.3638 C.ar    1  UNL1        0.1227
     14 N         141.1175  138.2755  155.9827 N.ar    1  UNL1       -0.2063
     15 S         142.1468  137.1963  155.8218 S.2     1  UNL1        0.0149
     16 C         142.9200  137.0985  157.1035 C.ar    1  UNL1        0.0712
     17 C         145.5930  142.5225  164.1562 C.3     1  UNL1        0.1063
     18 C         144.7090  143.4230  164.9671 C.3     1  UNL1        0.1483
     19 O         145.2345  144.0610  166.2188 O.3     1  UNL1       -0.3786
     20 H         144.5405  144.6079  166.6189 H       1  UNL1        0.2108
     21 C         142.4481  141.8484  166.1539 C.3     1  UNL1        0.0306
     22 C         142.1691  142.8983  165.1196 C.ar    1  UNL1       -0.0238
     23 C         143.2995  143.6857  164.5262 C.ar    1  UNL1        0.0015
     24 C         143.0205  144.7356  163.4919 C.ar    1  UNL1       -0.0020
     25 C         141.6110  144.9983  163.0511 C.ar    1  UNL1        0.0060
     26 C         140.4806  144.2109  163.6445 C.ar    1  UNL1        0.0748
     27 C         140.7596  143.1610  164.6788 C.ar    1  UNL1        0.0233
     28 C         139.4511  142.5485  165.0821 C.3     1  UNL1        0.2352
     29 O         138.3634  143.2198  164.2971 O.3     1  UNL1       -0.4404
     30 C         138.9997  144.2473  163.4086 C.2     1  UNL1        0.3413
     31 O         138.2812  145.1522  162.4522 O.2     1  UNL1       -0.2449
@<TRIPOS>BOND
     1    21    22    1
     2    22    23   ar
     3    23    18    1
     4    18    19    1
     5    18    17    1
     6    17     1    1
     7     1     2    1
     8     2     3    1
     9     3     4    1
    10     4     5    1
    11     5     6    1
    12     4     7    1
    13     7     8    1
    14     8     9    1
    15     9    12    1
    16    12    13   ar
    17    13    14   ar
    18    14    15   ar
    19    15    16   ar
    20     9    10   am
    21    10    11    2
    22    23    24   ar
    23    24    25   ar
    24    25    26   ar
    25    26    27   ar
    26    27    28    1
    27    28    29    1
    28    29    30    1
    29    30    31    2
    30    27    22   ar
    31     6     1    1
    32    16    12   ar
    33    30    26    1
    34    10     4    1
    35    19    20    1
@<TRIPOS>MOLECULE
*****
 31 35 0 0 0
SMALL
GASTEIGER

@<TRIPOS>ATOM
      1 N         139.1110  138.7996  164.4980 N.3     1  UNL1       -0.2703
      2 C         140.3888  139.5770  164.6112 C.3     1  UNL1        0.0727
      3 C         140.7795  140.1908  165.9229 C.3     1  UNL1        0.0260
      4 C         139.8924  140.0273  167.1214 C.3     1  UNL1        0.0737
      5 C         138.6146  139.2499  167.0082 C.3     1  UNL1        0.0260
      6 C         138.2239  138.6360  165.6965 C.3     1  UNL1        0.0727
      7 C         139.1108  139.9486  168.3993 C.3     1  UNL1        0.0306
      8 C         139.8687  140.7003  169.4532 C.3     1  UNL1        0.0987
      9 N         141.1186  141.2436  168.8266 N.am    1  UNL1       -0.2567
     10 C         141.1333  140.8277  167.3855 C.2     1  UNL1        0.2286
     11 O         142.2012  141.1546  166.3843 O.2     1  UNL1       -0.2746
     12 C         142.1693  142.0595  169.5194 C.ar    1  UNL1        0.0816
     13 C         141.9283  143.2837  170.3521 C.ar    1  UNL1        0.1227
     14 N         143.2556  143.7753  170.8485 N.ar    1  UNL1       -0.2063
     15 S         144.3171  142.8550  170.3228 S.2     1  UNL1        0.0149
     16 C         143.6456  141.7946  169.5014 C.ar    1  UNL1        0.0712
     17 C         138.7202  138.1857  163.1863 C.3     1  UNL1        0.1063
     18 C         138.0130  139.0114  162.1529 C.3     1  UNL1        0.1483
     19 O         136.9438  138.3929  161.3018 O.3     1  UNL1       -0.3786
     20 H         136.5918  139.0586  160.6904 H       1  UNL1        0.2108
     21 C         140.3620  139.7652  160.4458 C.3     1  UNL1        0.0306
     22 C         139.5494  140.8325  161.1170 C.ar    1  UNL1       -0.0238
     23 C         138.3749  140.4557  161.9705 C.ar    1  UNL1        0.0015
     24 C         137.5623  141.5230  162.6417 C.ar    1  UNL1       -0.0020
     25 C         137.9241  142.9672  162.4594 C.ar    1  UNL1        0.0060
     26 C         139.0986  143.3441  161.6058 C.ar    1  UNL1        0.0748
     27 C         139.9112  142.2767  160.9347 C.ar    1  UNL1        0.0233
     28 C         141.0059  142.9469  160.1585 C.3     1  UNL1        0.2352
     29 O         140.8699  144.4284  160.3499 O.3     1  UNL1       -0.4404
     30 C         139.6911  144.6738  161.2444 C.2     1  UNL1        0.3413
     31 O         139.1923  146.0138  161.6980 O.2     1  UNL1       -0.2449
@<TRIPOS>BOND
     1    21    22    1
     2    22    23   ar
     3    23    18    1
     4    18    19    1
     5    18    17    1
     6    17     1    1
     7     1     2    1
     8     2     3    1
     9     3     4    1
    10     4     5    1
    11     5     6    1
    12     4     7    1
    13     7     8    1
    14     8     9    1
    15     9    12    1
    16    12    13   ar
    17    13    14   ar
    18    14    15   ar
    19    15    16   ar
    20     9    10   am
    21    10    11    2
    22    23    24   ar
    23    24    25   ar
    24    25    26   ar
    25    26    27   ar
    26    27    28    1
    27    28    29    1
    28    29    30    1
    29    30    31    2
    30    27    22   ar
    31     6     1    1
    32    16    12   ar
    33    30    26    1
    34    10     4    1
    35    19    20    1
@<TRIPOS>MOLECULE
*****
 31 35 0 0 0
SMALL
GASTEIGER

@<TRIPOS>ATOM
      1 N         140.5152  138.3057  163.0144 N.3     1  UNL1       -0.2703
      2 C         141.4256  139.0716  163.9280 C.3     1  UNL1        0.0727
      3 C         140.9687  139.4354  165.3096 C.3     1  UNL1        0.0260
      4 C         139.6015  139.0333  165.7776 C.3     1  UNL1        0.0737
      5 C         138.6912  138.2674  164.8640 C.3     1  UNL1        0.0260
      6 C         139.1480  137.9036  163.4824 C.3     1  UNL1        0.0727
      7 C         138.2691  138.7015  166.3816 C.3     1  UNL1        0.0306
      8 C         138.2409  139.2559  167.7752 C.3     1  UNL1        0.0987
      9 N         139.5559  139.9303  168.0324 N.am    1  UNL1       -0.2567
     10 C         140.3967  139.7927  166.7979 C.2     1  UNL1        0.2286
     11 O         141.7885  140.3216  166.6156 O.2     1  UNL1       -0.2746
     12 C         139.9592  140.6210  169.3013 C.ar    1  UNL1        0.0816
     13 C         140.1535  139.9675  170.6374 C.ar    1  UNL1        0.1227
     14 N         140.5534  141.0291  171.6188 N.ar    1  UNL1       -0.2063
     15 S         140.6062  142.3387  170.8894 S.2     1  UNL1        0.0149
     16 C         140.2389  142.0864  169.4570 C.ar    1  UNL1        0.0712
     17 C         140.9721  137.9419  161.6327 C.3     1  UNL1        0.1063
     18 C         140.8617  138.9405  160.5190 C.3     1  UNL1        0.1483
     19 O         141.0928  138.5107  159.1006 O.3     1  UNL1       -0.3786
     20 H         140.9836  139.2725  158.5101 H       1  UNL1        0.2108
     21 C         143.0494  140.9601  160.8872 C.3     1  UNL1        0.0306
     22 C         141.6141  141.3788  161.0078 C.ar    1  UNL1       -0.0238
     23 C         140.5203  140.3691  160.8237 C.ar    1  UNL1        0.0015
     24 C         139.0850  140.7878  160.9442 C.ar    1  UNL1       -0.0020
     25 C         138.7435  142.2163  161.2489 C.ar    1  UNL1        0.0060
     26 C         139.8373  143.2260  161.4330 C.ar    1  UNL1        0.0748
     27 C         141.2727  142.8072  161.3124 C.ar    1  UNL1        0.0233
     28 C         142.1293  144.0167  161.5436 C.3     1  UNL1        0.2352
     29 O         141.2235  145.1829  161.8070 O.3     1  UNL1       -0.4404
     30 C         139.8070  144.6942  161.7386 C.2     1  UNL1        0.3413
     31 O         138.5761  145.5274  161.9404 O.2     1  UNL1       -0.2449
@<TRIPOS>BOND
     1    21    22    1
     2    22    23   ar
     3    23    18    1
     4    18    19    1
     5    18    17    1
     6    17     1    1
     7     1     2    1
     8     2     3    1
     9     3     4    1
    10     4     5    1
    11     5     6    1
    12     4     7    1
    13     7     8    1
    14     8     9    1
    15     9    12    1
    16    12    13   ar
    17    13    14   ar
    18    14    15   ar
    19    15    16   ar
    20     9    10   am
    21    10    11    2
    22    23    24   ar
    23    24    25   ar
    24    25    26   ar
    25    26    27   ar
    26    27    28    1
    27    28    29    1
    28    29    30    1
    29    30    31    2
    30    27    22   ar
    31     6     1    1
    32    16    12   ar
    33    30    26    1
    34    10     4    1
    35    19    20    1
@<TRIPOS>MOLECULE
*****
 31 35 0 0 0
SMALL
GASTEIGER

@<TRIPOS>ATOM
      1 N         143.3440  138.7052  164.9678 N.3     1  UNL1       -0.2703
      2 C         142.2283  138.0231  164.2329 C.3     1  UNL1        0.0727
      3 C         142.1646  138.0910  162.7359 C.3     1  UNL1        0.0260
      4 C         143.2165  138.8409  161.9736 C.3     1  UNL1        0.0737
      5 C         144.3322  139.5230  162.7085 C.3     1  UNL1        0.0260
      6 C         144.3959  139.4551  164.2055 C.3     1  UNL1        0.0727
      7 C         144.1915  139.5497  161.0808 C.3     1  UNL1        0.0306
      8 C         143.7442  139.3588  159.6618 C.3     1  UNL1        0.0987
      9 N         142.4927  138.5320  159.6776 N.am    1  UNL1       -0.2567
     10 C         142.1666  138.2119  161.1064 C.2     1  UNL1        0.2286
     11 O         140.9961  137.4047  161.5841 O.2     1  UNL1       -0.2746
     12 C         141.7055  138.1009  158.4758 C.ar    1  UNL1        0.0816
     13 C         142.2090  137.2423  157.3537 C.ar    1  UNL1        0.1227
     14 N         141.0913  137.0635  156.3694 N.ar    1  UNL1       -0.2063
     15 S         139.8970  137.8117  156.8832 S.2     1  UNL1        0.0149
     16 C         140.2767  138.4528  158.1851 C.ar    1  UNL1        0.0712
     17 C         143.4078  138.6373  166.4649 C.3     1  UNL1        0.1063
     18 C         142.6953  139.6650  167.2933 C.3     1  UNL1        0.1483
     19 O         143.0353  139.8248  168.7455 O.3     1  UNL1       -0.3786
     20 H         142.4873  140.5265  169.1305 H       1  UNL1        0.2108
     21 C         143.4539  142.2956  166.0667 C.3     1  UNL1        0.0306
     22 C         142.0222  141.8482  166.0562 C.ar    1  UNL1       -0.0238
     23 C         141.6429  140.5330  166.6695 C.ar    1  UNL1        0.0015
     24 C         140.2112  140.0857  166.6590 C.ar    1  UNL1       -0.0020
     25 C         139.1588  140.9536  166.0352 C.ar    1  UNL1        0.0060
     26 C         139.5381  142.2688  165.4219 C.ar    1  UNL1        0.0748
     27 C         140.9699  142.7162  165.4324 C.ar    1  UNL1        0.0233
     28 C         141.0426  144.0532  164.7563 C.3     1  UNL1        0.2352
     29 O         139.6560  144.4322  164.3280 O.3     1  UNL1       -0.4404
     30 C         138.7262  143.3294  164.7394 C.2     1  UNL1        0.3413
     31 O         137.2444  143.2934  164.5087 O.2     1  UNL1       -0.2449
@<TRIPOS>BOND
     1    21    22    1
     2    22    23   ar
     3    23    18    1
     4    18    19    1
     5    18    17    1
     6    17     1    1
     7     1     2    1
     8     2     3    1
     9     3     4    1
    10     4     5    1
    11     5     6    1
    12     4     7    1
    13     7     8    1
    14     8     9    1
    15     9    12    1
    16    12    13   ar
    17    13    14   ar
    18    14    15   ar
    19    15    16   ar
    20     9    10   am
    21    10    11    2
    22    23    24   ar
    23    24    25   ar
    24    25    26   ar
    25    26    27   ar
    26    27    28    1
    27    28    29    1
    28    29    30    1
    29    30    31    2
    30    27    22   ar
    31     6     1    1
    32    16    12   ar
    33    30    26    1
    34    10     4    1
    35    19    20    1
@<TRIPOS>MOLECULE
*****
 31 35 0 0 0
SMALL
GASTEIGER

@<TRIPOS>ATOM
      1 N         139.8787  138.3597  163.6497 N.3     1  UNL1       -0.2703
      2 C         141.2215  137.9741  163.1038 C.3     1  UNL1        0.0727
      3 C         141.4581  137.9778  161.6226 C.3     1  UNL1        0.0260
      4 C         140.3520  138.3672  160.6873 C.3     1  UNL1        0.0737
      5 C         139.0092  138.7529  161.2332 C.3     1  UNL1        0.0260
      6 C         138.7725  138.7491  162.7144 C.3     1  UNL1        0.0727
      7 C         139.3472  138.7314  159.6348 C.3     1  UNL1        0.0306
      8 C         140.0093  138.5967  158.2955 C.3     1  UNL1        0.0987
      9 N         141.4232  138.1492  158.5203 N.am    1  UNL1       -0.2567
     10 C         141.6351  138.0074  159.9985 C.2     1  UNL1        0.2286
     11 O         142.9066  137.5807  160.6700 O.2     1  UNL1       -0.2746
     12 C         142.4458  137.8892  157.4542 C.ar    1  UNL1        0.0816
     13 C         143.3625  138.9080  156.8446 C.ar    1  UNL1        0.1227
     14 N         144.2144  138.2132  155.8241 N.ar    1  UNL1       -0.2063
     15 S         143.8243  136.7650  155.8029 S.2     1  UNL1        0.0149
     16 C         142.7312  136.5648  156.8105 C.ar    1  UNL1        0.0712
     17 C         139.6419  138.3560  165.1309 C.3     1  UNL1        0.1063
     18 C         139.0653  139.5676  165.8013 C.3     1  UNL1        0.1483
     19 O         137.7866  140.1672  165.2960 O.3     1  UNL1       -0.3786
     20 H         137.5552  140.9384  165.8370 H       1  UNL1        0.2108
     21 C         141.5552  141.1884  165.3845 C.3     1  UNL1        0.0306
     22 C         141.0124  140.9901  166.7687 C.ar    1  UNL1       -0.0238
     23 C         139.7675  140.1797  166.9771 C.ar    1  UNL1        0.0015
     24 C         139.2247  139.9814  168.3613 C.ar    1  UNL1       -0.0020
     25 C         139.9268  140.5934  169.5371 C.ar    1  UNL1        0.0060
     26 C         141.1716  141.4038  169.3286 C.ar    1  UNL1        0.0748
     27 C         141.7145  141.6021  167.9444 C.ar    1  UNL1        0.0233
     28 C         142.9513  142.4445  168.0479 C.3     1  UNL1        0.2352
     29 O         143.1729  142.7668  169.4960 O.3     1  UNL1       -0.4404
     30 C         142.0730  142.1236  170.2875 C.2     1  UNL1        0.3413
     31 O         141.9041  142.1887  171.7765 O.2     1  UNL1       -0.2449
@<TRIPOS>BOND
     1    21    22    1
     2    22    23   ar
     3    23    18    1
     4    18    19    1
     5    18    17    1
     6    17     1    1
     7     1     2    1
     8     2     3    1
     9     3     4    1
    10     4     5    1
    11     5     6    1
    12     4     7    1
    13     7     8    1
    14     8     9    1
    15     9    12    1
    16    12    13   ar
    17    13    14   ar
    18    14    15   ar
    19    15    16   ar
    20     9    10   am
    21    10    11    2
    22    23    24   ar
    23    24    25   ar
    24    25    26   ar
    25    26    27   ar
    26    27    28    1
    27    28    29    1
    28    29    30    1
    29    30    31    2
    30    27    22   ar
    31     6     1    1
    32    16    12   ar
    33    30    26    1
    34    10     4    1
    35    19    20    1
