@<TRIPOS>MOLECULE
*****
 35 38 0 0 0
SMALL
GASTEIGER

@<TRIPOS>ATOM
      1 C         140.5867  139.4313  161.3064 C.ar    1  UNL1        0.0685
      2 C         139.7173  139.3757  160.0853 C.ar    1  UNL1        0.0885
      3 C         138.2832  139.8076  160.1654 C.ar    1  UNL1        0.1263
      4 N         137.7183  140.2952  161.4667 N.ar    1  UNL1       -0.1633
      5 N         138.5876  140.3508  162.6878 N.ar    1  UNL1       -0.2270
      6 C         138.3116  140.7825  164.0975 C.ar    1  UNL1        0.1004
      7 C         139.5753  140.6173  164.8886 C.ar    1  UNL1        0.0207
      8 C         140.6323  140.0836  163.9678 C.ar    1  UNL1        0.0219
      9 C         140.0219  139.9188  162.6076 C.ar    1  UNL1        0.0961
     10 C         139.7511  140.9309  166.3449 C.ar    1  UNL1        0.0016
     11 C         139.2844  139.9549  167.3840 C.ar    1  UNL1        0.0007
     12 C         139.4602  140.2686  168.8403 C.ar    1  UNL1        0.0103
     13 C         140.1028  141.5581  169.2575 C.ar    1  UNL1        0.0684
     14 C         140.5696  142.5341  168.2185 C.ar    1  UNL1        0.0103
     15 C         140.3937  142.2205  166.7622 C.ar    1  UNL1        0.0007
     16 C         140.2787  141.8717  170.7138 C.1     1  UNL1        0.1004
     17 N         140.4545  142.1853  172.1700 N.1     1  UNL1       -0.1908
     18 C         140.2822  138.8882  158.7840 C.2     1  UNL1        0.2456
     19 N         139.4548  138.0159  157.8871 N.am    1  UNL1       -0.3252
     20 O         141.6745  139.2728  158.3797 O.2     1  UNL1       -0.2703
     21 H         138.5409  137.7634  158.1525 H       1  UNL1        0.1453
     22 H         139.8255  137.6959  157.0331 H       1  UNL1        0.1453
     23 N         142.0209  138.9993  161.2262 N.pl3   1  UNL1       -0.3327
     24 H         142.2454  138.0934  160.9129 H       1  UNL1        0.1468
     25 C         143.2757  138.5154  163.0203 C.3     1  UNL1        0.0029
     26 C         144.0435  139.7830  162.7885 C.3     1  UNL1        0.0282
     27 C         144.8132  139.3532  164.0020 C.3     1  UNL1        0.0029
     28 C         143.1132  139.9477  161.6234 C.3     1  UNL1        0.0702
     29 C         143.4669  141.2273  160.9251 C.3     1  UNL1        0.0208
     30 C         144.6157  141.8534  161.6587 C.3     1  UNL1        0.0160
     31 C         144.9720  140.9607  162.8103 C.3     1  UNL1        0.0404
     32 C         145.5477  140.2848  164.0193 C.3     1  UNL1        0.0156
     33 N         146.0210  141.9972  163.0849 N.3     1  UNL1       -0.3231
     34 H         145.9584  142.7377  162.3862 H       1  UNL1        0.1188
     35 H         146.9445  141.5661  163.0416 H       1  UNL1        0.1188
@<TRIPOS>BOND
     1    25    26    1
     2    26    27    1
     3    26    28    1
     4    28    23    1
     5    23     1    1
     6     1     2   ar
     7     2    18    1
     8    18    19   am
     9    18    20    2
    10     2     3   ar
    11     3     4   ar
    12     4     5   ar
    13     5     6   ar
    14     6     7   ar
    15     7    10    1
    16    10    11   ar
    17    11    12   ar
    18    12    13   ar
    19    13    16    1
    20    16    17    3
    21    13    14   ar
    22    14    15   ar
    23     7     8   ar
    24     8     9   ar
    25    28    29    1
    26    29    30    1
    27    30    31    1
    28    31    32    1
    29    31    33    1
    30    31    26    1
    31     9     1   ar
    32     9     5   ar
    33    15    10   ar
    34    23    24    1
    35    19    21    1
    36    19    22    1
    37    33    34    1
    38    33    35    1
@<TRIPOS>MOLECULE
*****
 35 38 0 0 0
SMALL
GASTEIGER

@<TRIPOS>ATOM
      1 C         143.2319  140.8135  159.8813 C.ar    1  UNL1        0.0685
      2 C         143.5775  140.4244  158.4745 C.ar    1  UNL1        0.0885
      3 C         142.8881  139.2599  157.8276 C.ar    1  UNL1        0.1263
      4 N         141.8529  138.4845  158.5874 N.ar    1  UNL1       -0.1633
      5 N         141.5073  138.8737  159.9942 N.ar    1  UNL1       -0.2270
      6 C         140.5360  138.3017  160.9839 C.ar    1  UNL1        0.1004
      7 C         140.6252  139.1128  162.2426 C.ar    1  UNL1        0.0207
      8 C         141.6516  140.1860  162.0307 C.ar    1  UNL1        0.0219
      9 C         142.1967  140.0382  160.6411 C.ar    1  UNL1        0.0961
     10 C         139.8280  138.8898  163.4935 C.ar    1  UNL1        0.0016
     11 C         139.7284  137.5147  164.0842 C.ar    1  UNL1        0.0007
     12 C         138.9312  137.2918  165.3352 C.ar    1  UNL1        0.0103
     13 C         138.2336  138.4440  165.9953 C.ar    1  UNL1        0.0684
     14 C         138.3332  139.8191  165.4046 C.ar    1  UNL1        0.0103
     15 C         139.1304  140.0420  164.1536 C.ar    1  UNL1        0.0007
     16 C         137.4364  138.2210  167.2462 C.1     1  UNL1        0.1004
     17 N         136.6392  137.9981  168.4971 N.1     1  UNL1       -0.1908
     18 C         144.6127  141.1998  157.7147 C.2     1  UNL1        0.2456
     19 N         145.5592  140.4862  156.7955 N.am    1  UNL1       -0.3252
     20 O         144.7013  142.6886  157.8742 O.2     1  UNL1       -0.2703
     21 H         145.5010  139.5090  156.6909 H       1  UNL1        0.1453
     22 H         146.2386  140.9951  156.2968 H       1  UNL1        0.1453
     23 N         143.9213  141.9780  160.5283 N.pl3   1  UNL1       -0.3327
     24 H         144.9047  142.0120  160.5604 H       1  UNL1        0.1468
     25 C         144.5717  142.8586  162.4852 C.3     1  UNL1        0.0029
     26 C         143.3998  143.7926  162.4205 C.3     1  UNL1        0.0282
     27 C         143.9321  144.2992  163.7282 C.3     1  UNL1        0.0029
     28 C         143.1124  143.0908  161.1264 C.3     1  UNL1        0.0702
     29 C         141.8743  143.6970  160.5353 C.3     1  UNL1        0.0208
     30 C         141.3964  144.7734  161.4641 C.3     1  UNL1        0.0160
     31 C         142.3392  144.8325  162.6293 C.3     1  UNL1        0.0404
     32 C         143.0933  145.1217  163.8933 C.3     1  UNL1        0.0156
     33 N         141.4362  145.9330  163.1023 N.3     1  UNL1       -0.3231
     34 H         140.6846  146.0701  162.4265 H       1  UNL1        0.1188
     35 H         141.9718  146.7961  163.1949 H       1  UNL1        0.1188
@<TRIPOS>BOND
     1    25    26    1
     2    26    27    1
     3    26    28    1
     4    28    23    1
     5    23     1    1
     6     1     2   ar
     7     2    18    1
     8    18    19   am
     9    18    20    2
    10     2     3   ar
    11     3     4   ar
    12     4     5   ar
    13     5     6   ar
    14     6     7   ar
    15     7    10    1
    16    10    11   ar
    17    11    12   ar
    18    12    13   ar
    19    13    16    1
    20    16    17    3
    21    13    14   ar
    22    14    15   ar
    23     7     8   ar
    24     8     9   ar
    25    28    29    1
    26    29    30    1
    27    30    31    1
    28    31    32    1
    29    31    33    1
    30    31    26    1
    31     9     1   ar
    32     9     5   ar
    33    15    10   ar
    34    23    24    1
    35    19    21    1
    36    19    22    1
    37    33    34    1
    38    33    35    1
@<TRIPOS>MOLECULE
*****
 35 38 0 0 0
SMALL
GASTEIGER

@<TRIPOS>ATOM
      1 C         139.8711  140.3503  161.1880 C.ar    1  UNL1        0.0685
      2 C         139.2335  139.4420  160.1788 C.ar    1  UNL1        0.0885
      3 C         138.3244  138.3383  160.6318 C.ar    1  UNL1        0.1263
      4 N         138.0528  138.1429  162.0941 N.ar    1  UNL1       -0.1633
      5 N         138.6903  139.0513  163.1032 N.ar    1  UNL1       -0.2270
      6 C         138.6102  139.1017  164.6002 C.ar    1  UNL1        0.1004
      7 C         139.4699  140.2366  165.0724 C.ar    1  UNL1        0.0207
      8 C         140.0813  140.8876  163.8672 C.ar    1  UNL1        0.0219
      9 C         139.5994  140.1550  162.6502 C.ar    1  UNL1        0.0961
     10 C         139.6812  140.6482  166.4992 C.ar    1  UNL1        0.0016
     11 C         139.2028  139.7651  167.6133 C.ar    1  UNL1        0.0007
     12 C         139.4141  140.1769  169.0402 C.ar    1  UNL1        0.0103
     13 C         140.1037  141.4717  169.3529 C.ar    1  UNL1        0.0684
     14 C         140.5821  142.3548  168.2388 C.ar    1  UNL1        0.0103
     15 C         140.3708  141.9430  166.8120 C.ar    1  UNL1        0.0007
     16 C         140.3150  141.8833  170.7798 C.1     1  UNL1        0.1004
     17 N         140.5262  142.2950  172.2066 N.1     1  UNL1       -0.1908
     18 C         139.5052  139.6374  158.7165 C.2     1  UNL1        0.2456
     19 N         138.3648  139.8242  157.7603 N.am    1  UNL1       -0.3252
     20 O         140.9172  139.6460  158.2107 O.2     1  UNL1       -0.2703
     21 H         137.4380  139.8185  158.0924 H       1  UNL1        0.1453
     22 H         138.5430  139.9524  156.8006 H       1  UNL1        0.1453
     23 N         140.7802  141.4541  160.7349 N.pl3   1  UNL1       -0.3327
     24 H         140.4372  142.1633  160.1445 H       1  UNL1        0.1468
     25 C         141.6417  143.3734  161.5104 C.3     1  UNL1        0.0029
     26 C         142.9475  142.6667  161.7239 C.3     1  UNL1        0.0282
     27 C         143.4097  144.0039  162.2217 C.3     1  UNL1        0.0029
     28 C         142.2121  141.4772  161.1814 C.3     1  UNL1        0.0702
     29 C         143.1600  140.3148  161.1637 C.3     1  UNL1        0.0208
     30 C         144.4811  140.7859  161.6952 C.3     1  UNL1        0.0160
     31 C         144.3497  142.2394  162.0415 C.3     1  UNL1        0.0404
     32 C         144.5189  143.6660  162.4730 C.3     1  UNL1        0.0156
     33 N         145.7875  142.1105  162.4493 N.3     1  UNL1       -0.3231
     34 H         146.1012  141.1529  162.2910 H       1  UNL1        0.1188
     35 H         145.8822  142.3402  163.4385 H       1  UNL1        0.1188
@<TRIPOS>BOND
     1    25    26    1
     2    26    27    1
     3    26    28    1
     4    28    23    1
     5    23     1    1
     6     1     2   ar
     7     2    18    1
     8    18    19   am
     9    18    20    2
    10     2     3   ar
    11     3     4   ar
    12     4     5   ar
    13     5     6   ar
    14     6     7   ar
    15     7    10    1
    16    10    11   ar
    17    11    12   ar
    18    12    13   ar
    19    13    16    1
    20    16    17    3
    21    13    14   ar
    22    14    15   ar
    23     7     8   ar
    24     8     9   ar
    25    28    29    1
    26    29    30    1
    27    30    31    1
    28    31    32    1
    29    31    33    1
    30    31    26    1
    31     9     1   ar
    32     9     5   ar
    33    15    10   ar
    34    23    24    1
    35    19    21    1
    36    19    22    1
    37    33    34    1
    38    33    35    1
@<TRIPOS>MOLECULE
*****
 35 38 0 0 0
SMALL
GASTEIGER

@<TRIPOS>ATOM
      1 C         141.6544  140.6542  167.1665 C.ar    1  UNL1        0.0685
      2 C         141.3083  140.7050  168.6251 C.ar    1  UNL1        0.0885
      3 C         140.4852  141.8383  169.1616 C.ar    1  UNL1        0.1263
      4 N         140.0080  142.9210  168.2395 N.ar    1  UNL1       -0.1633
      5 N         140.3541  142.8702  166.7808 N.ar    1  UNL1       -0.2270
      6 C         140.0277  143.7870  165.6394 C.ar    1  UNL1        0.1004
      7 C         140.6492  143.2202  164.3974 C.ar    1  UNL1        0.0207
      8 C         141.3597  141.9531  164.7713 C.ar    1  UNL1        0.0219
      9 C         141.1772  141.7368  166.2443 C.ar    1  UNL1        0.0961
     10 C         140.5735  143.8159  163.0229 C.ar    1  UNL1        0.0016
     11 C         141.0220  143.0185  161.8341 C.ar    1  UNL1        0.0007
     12 C         140.9463  143.6144  160.4596 C.ar    1  UNL1        0.0103
     13 C         140.4222  145.0075  160.2737 C.ar    1  UNL1        0.0684
     14 C         139.9738  145.8049  161.4625 C.ar    1  UNL1        0.0103
     15 C         140.0495  145.2091  162.8370 C.ar    1  UNL1        0.0007
     16 C         140.3465  145.6032  158.8992 C.1     1  UNL1        0.1004
     17 N         140.2708  146.1989  157.5247 N.1     1  UNL1       -0.1908
     18 C         141.7855  139.6223  169.5472 C.2     1  UNL1        0.2456
     19 N         140.9389  139.2023  170.7121 N.am    1  UNL1       -0.3252
     20 O         143.1090  138.9597  169.3044 O.2     1  UNL1       -0.2703
     21 H         140.0702  139.6373  170.8715 H       1  UNL1        0.1453
     22 H         141.2520  138.4918  171.3173 H       1  UNL1        0.1453
     23 N         142.4775  139.5208  166.6300 N.pl3   1  UNL1       -0.3327
     24 H         143.2788  139.2208  167.1169 H       1  UNL1        0.1468
     25 C         143.9357  139.4809  164.9271 C.3     1  UNL1        0.0029
     26 C         142.9247  138.7240  164.1179 C.3     1  UNL1        0.0282
     27 C         143.9809  138.7618  163.0535 C.3     1  UNL1        0.0029
     28 C         142.0798  138.8445  165.3514 C.3     1  UNL1        0.0702
     29 C         140.7674  138.1700  165.0821 C.3     1  UNL1        0.0208
     30 C         140.8011  137.6326  163.6821 C.3     1  UNL1        0.0160
     31 C         142.1344  137.9751  163.0862 C.3     1  UNL1        0.0404
     32 C         143.3559  138.1694  162.2375 C.3     1  UNL1        0.0156
     33 N         141.5995  137.2667  161.8770 N.3     1  UNL1       -0.3231
     34 H         140.6548  136.9331  162.0686 H       1  UNL1        0.1188
     35 H         142.2012  136.4740  161.6535 H       1  UNL1        0.1188
@<TRIPOS>BOND
     1    25    26    1
     2    26    27    1
     3    26    28    1
     4    28    23    1
     5    23     1    1
     6     1     2   ar
     7     2    18    1
     8    18    19   am
     9    18    20    2
    10     2     3   ar
    11     3     4   ar
    12     4     5   ar
    13     5     6   ar
    14     6     7   ar
    15     7    10    1
    16    10    11   ar
    17    11    12   ar
    18    12    13   ar
    19    13    16    1
    20    16    17    3
    21    13    14   ar
    22    14    15   ar
    23     7     8   ar
    24     8     9   ar
    25    28    29    1
    26    29    30    1
    27    30    31    1
    28    31    32    1
    29    31    33    1
    30    31    26    1
    31     9     1   ar
    32     9     5   ar
    33    15    10   ar
    34    23    24    1
    35    19    21    1
    36    19    22    1
    37    33    34    1
    38    33    35    1
@<TRIPOS>MOLECULE
*****
 35 38 0 0 0
SMALL
GASTEIGER

@<TRIPOS>ATOM
      1 C         142.6190  143.0018  161.2067 C.ar    1  UNL1        0.0685
      2 C         143.7167  142.8537  160.1953 C.ar    1  UNL1        0.0885
      3 C         145.0928  142.4507  160.6354 C.ar    1  UNL1        0.1263
      4 N         145.3713  142.1956  162.0872 N.ar    1  UNL1       -0.1633
      5 N         144.2736  142.3437  163.0987 N.ar    1  UNL1       -0.2270
      6 C         144.2490  142.1604  164.5872 C.ar    1  UNL1        0.1004
      7 C         142.8577  142.4503  165.0669 C.ar    1  UNL1        0.0207
      8 C         142.0223  142.8127  163.8749 C.ar    1  UNL1        0.0219
      9 C         142.8974  142.7468  162.6584 C.ar    1  UNL1        0.0961
     10 C         142.3846  142.3886  166.4891 C.ar    1  UNL1        0.0016
     11 C         140.9206  142.4948  166.7978 C.ar    1  UNL1        0.0007
     12 C         140.4476  142.4331  168.2200 C.ar    1  UNL1        0.0103
     13 C         141.4386  142.2651  169.3334 C.ar    1  UNL1        0.0684
     14 C         142.9027  142.1588  169.0247 C.ar    1  UNL1        0.0103
     15 C         143.3756  142.2206  167.6025 C.ar    1  UNL1        0.0007
     16 C         140.9656  142.2034  170.7555 C.1     1  UNL1        0.1004
     17 N         140.4926  142.1417  172.1776 N.1     1  UNL1       -0.1908
     18 C         143.4382  143.1088  158.7435 C.2     1  UNL1        0.2456
     19 N         143.7825  142.0679  157.7197 N.am    1  UNL1       -0.3252
     20 O         142.8156  144.4045  158.3156 O.2     1  UNL1       -0.2703
     21 H         144.1912  141.2174  158.0006 H       1  UNL1        0.1453
     22 H         143.5997  142.2352  156.7669 H       1  UNL1        0.1453
     23 N         141.2429  143.4049  160.7665 N.pl3   1  UNL1       -0.3327
     24 H         141.1288  144.1266  160.1067 H       1  UNL1        0.1468
     25 C         139.7824  144.5870  161.9901 C.3     1  UNL1        0.0029
     26 C         138.9676  143.3402  162.1679 C.3     1  UNL1        0.0282
     27 C         138.0650  144.2328  162.9671 C.3     1  UNL1        0.0029
     28 C         140.0405  142.7084  161.3316 C.3     1  UNL1        0.0702
     29 C         139.7001  141.2577  161.1595 C.3     1  UNL1        0.0208
     30 C         138.4168  140.9930  161.8895 C.3     1  UNL1        0.0160
     31 C         137.9641  142.2801  162.5127 C.3     1  UNL1        0.0404
     32 C         137.2712  143.3942  163.2398 C.3     1  UNL1        0.0156
     33 N         136.8157  141.4528  163.0096 N.3     1  UNL1       -0.3231
     34 H         136.9246  140.4913  162.6869 H       1  UNL1        0.1188
     35 H         135.9409  141.8349  162.6503 H       1  UNL1        0.1188
@<TRIPOS>BOND
     1    25    26    1
     2    26    27    1
     3    26    28    1
     4    28    23    1
     5    23     1    1
     6     1     2   ar
     7     2    18    1
     8    18    19   am
     9    18    20    2
    10     2     3   ar
    11     3     4   ar
    12     4     5   ar
    13     5     6   ar
    14     6     7   ar
    15     7    10    1
    16    10    11   ar
    17    11    12   ar
    18    12    13   ar
    19    13    16    1
    20    16    17    3
    21    13    14   ar
    22    14    15   ar
    23     7     8   ar
    24     8     9   ar
    25    28    29    1
    26    29    30    1
    27    30    31    1
    28    31    32    1
    29    31    33    1
    30    31    26    1
    31     9     1   ar
    32     9     5   ar
    33    15    10   ar
    34    23    24    1
    35    19    21    1
    36    19    22    1
    37    33    34    1
    38    33    35    1
@<TRIPOS>MOLECULE
*****
 35 38 0 0 0
SMALL
GASTEIGER

@<TRIPOS>ATOM
      1 C         140.3830  140.2787  165.9241 C.ar    1  UNL1        0.0685
      2 C         139.5335  139.9223  167.1078 C.ar    1  UNL1        0.0885
      3 C         138.4791  138.8629  166.9825 C.ar    1  UNL1        0.1263
      4 N         138.2742  138.1598  165.6733 N.ar    1  UNL1       -0.1633
      5 N         139.1237  138.5162  164.4896 N.ar    1  UNL1       -0.2270
      6 C         139.1518  137.9985  163.0821 C.ar    1  UNL1        0.1004
      7 C         140.2236  138.7380  162.3375 C.ar    1  UNL1        0.0207
      8 C         140.8579  139.7128  163.2849 C.ar    1  UNL1        0.0219
      9 C         140.1781  139.5757  164.6150 C.ar    1  UNL1        0.0961
     10 C         140.5958  138.5379  160.8983 C.ar    1  UNL1        0.0016
     11 C         139.5450  138.6313  159.8319 C.ar    1  UNL1        0.0007
     12 C         139.9173  138.4312  158.3926 C.ar    1  UNL1        0.0103
     13 C         141.3403  138.1377  158.0198 C.ar    1  UNL1        0.0684
     14 C         142.3910  138.0443  159.0861 C.ar    1  UNL1        0.0103
     15 C         142.0187  138.2444  160.5254 C.ar    1  UNL1        0.0007
     16 C         141.7125  137.9376  156.5805 C.1     1  UNL1        0.1004
     17 N         142.0846  137.7376  155.1413 N.1     1  UNL1       -0.1908
     18 C         139.7384  140.6254  168.4169 C.2     1  UNL1        0.2456
     19 N         139.5288  139.8869  169.7056 N.am    1  UNL1       -0.3252
     20 O         140.1530  142.0667  168.4373 O.2     1  UNL1       -0.2703
     21 H         139.2567  138.9409  169.6922 H       1  UNL1        0.1453
     22 H         139.6633  140.3483  170.5649 H       1  UNL1        0.1453
     23 N         141.4374  141.3382  166.0495 N.pl3   1  UNL1       -0.3327
     24 H         142.2251  141.1838  166.6195 H       1  UNL1        0.1468
     25 C         143.2788  142.3513  165.2681 C.3     1  UNL1        0.0029
     26 C         142.4090  143.4427  164.7181 C.3     1  UNL1        0.0282
     27 C         143.7083  144.0241  164.2449 C.3     1  UNL1        0.0029
     28 C         141.2917  142.6331  165.3063 C.3     1  UNL1        0.0702
     29 C         140.0029  143.3456  165.0209 C.3     1  UNL1        0.0208
     30 C         140.3238  144.5956  164.2563 C.3     1  UNL1        0.0160
     31 C         141.8109  144.6555  164.0692 C.3     1  UNL1        0.0404
     32 C         143.2352  144.9834  163.7316 C.3     1  UNL1        0.0156
     33 N         141.5105  145.9370  163.3497 N.3     1  UNL1       -0.3231
     34 H         140.5040  146.1024  163.3557 H       1  UNL1        0.1188
     35 H         141.8384  145.8708  162.3861 H       1  UNL1        0.1188
@<TRIPOS>BOND
     1    25    26    1
     2    26    27    1
     3    26    28    1
     4    28    23    1
     5    23     1    1
     6     1     2   ar
     7     2    18    1
     8    18    19   am
     9    18    20    2
    10     2     3   ar
    11     3     4   ar
    12     4     5   ar
    13     5     6   ar
    14     6     7   ar
    15     7    10    1
    16    10    11   ar
    17    11    12   ar
    18    12    13   ar
    19    13    16    1
    20    16    17    3
    21    13    14   ar
    22    14    15   ar
    23     7     8   ar
    24     8     9   ar
    25    28    29    1
    26    29    30    1
    27    30    31    1
    28    31    32    1
    29    31    33    1
    30    31    26    1
    31     9     1   ar
    32     9     5   ar
    33    15    10   ar
    34    23    24    1
    35    19    21    1
    36    19    22    1
    37    33    34    1
    38    33    35    1
@<TRIPOS>MOLECULE
*****
 35 38 0 0 0
SMALL
GASTEIGER

@<TRIPOS>ATOM
      1 C         143.0903  140.9573  161.3880 C.ar    1  UNL1        0.0685
      2 C         143.8834  141.5831  160.2793 C.ar    1  UNL1        0.0885
      3 C         144.6655  142.8378  160.5322 C.ar    1  UNL1        0.1263
      4 N         144.6546  143.4667  161.8940 N.ar    1  UNL1       -0.1633
      5 N         143.8615  142.8409  163.0027 N.ar    1  UNL1       -0.2270
      6 C         143.6617  143.2304  164.4375 C.ar    1  UNL1        0.1004
      7 C         142.7560  142.2163  165.0711 C.ar    1  UNL1        0.0207
      8 C         142.3962  141.2002  164.0281 C.ar    1  UNL1        0.0219
      9 C         143.0793  141.5862  162.7497 C.ar    1  UNL1        0.0961
     10 C         142.2918  142.2181  166.4975 C.ar    1  UNL1        0.0016
     11 C         140.8245  142.2289  166.8086 C.ar    1  UNL1        0.0007
     12 C         140.3603  142.2307  168.2351 C.ar    1  UNL1        0.0103
     13 C         141.3634  142.2216  169.3503 C.ar    1  UNL1        0.0684
     14 C         142.8307  142.2108  169.0391 C.ar    1  UNL1        0.0103
     15 C         143.2949  142.2090  167.6127 C.ar    1  UNL1        0.0007
     16 C         140.8991  142.2234  170.7766 C.1     1  UNL1        0.1004
     17 N         140.4349  142.2252  172.2029 N.1     1  UNL1       -0.1908
     18 C         143.8944  140.9541  158.9175 C.2     1  UNL1        0.2456
     19 N         143.6979  141.8041  157.6973 N.am    1  UNL1       -0.3252
     20 O         144.1018  139.4754  158.7760 O.2     1  UNL1       -0.2703
     21 H         143.5617  142.7747  157.7902 H       1  UNL1        0.1453
     22 H         143.7050  141.3913  156.8035 H       1  UNL1        0.1453
     23 N         142.3082  139.7026  161.1350 N.pl3   1  UNL1       -0.3327
     24 H         142.7726  138.8365  161.0762 H       1  UNL1        0.1468
     25 C         141.0333  138.2169  162.2281 C.3     1  UNL1        0.0029
     26 C         139.8195  138.8585  161.6239 C.3     1  UNL1        0.0282
     27 C         139.0743  137.8153  162.4026 C.3     1  UNL1        0.0029
     28 C         140.8185  139.7675  160.9715 C.3     1  UNL1        0.0702
     29 C         140.0663  140.7528  160.1269 C.3     1  UNL1        0.0208
     30 C         138.6025  140.4528  160.2574 C.3     1  UNL1        0.0160
     31 C         138.4500  139.2820  161.1826 C.3     1  UNL1        0.0404
     32 C         137.9910  138.1503  162.0536 C.3     1  UNL1        0.0156
     33 N         136.9844  139.4689  160.9233 N.3     1  UNL1       -0.3231
     34 H         136.8493  140.2534  160.2856 H       1  UNL1        0.1188
     35 H         136.5051  139.6596  161.8032 H       1  UNL1        0.1188
@<TRIPOS>BOND
     1    25    26    1
     2    26    27    1
     3    26    28    1
     4    28    23    1
     5    23     1    1
     6     1     2   ar
     7     2    18    1
     8    18    19   am
     9    18    20    2
    10     2     3   ar
    11     3     4   ar
    12     4     5   ar
    13     5     6   ar
    14     6     7   ar
    15     7    10    1
    16    10    11   ar
    17    11    12   ar
    18    12    13   ar
    19    13    16    1
    20    16    17    3
    21    13    14   ar
    22    14    15   ar
    23     7     8   ar
    24     8     9   ar
    25    28    29    1
    26    29    30    1
    27    30    31    1
    28    31    32    1
    29    31    33    1
    30    31    26    1
    31     9     1   ar
    32     9     5   ar
    33    15    10   ar
    34    23    24    1
    35    19    21    1
    36    19    22    1
    37    33    34    1
    38    33    35    1
@<TRIPOS>MOLECULE
*****
 35 38 0 0 0
SMALL
GASTEIGER

@<TRIPOS>ATOM
      1 C         141.5961  143.4637  160.7401 C.ar    1  UNL1        0.0685
      2 C         141.2110  144.5539  159.7846 C.ar    1  UNL1        0.0885
      3 C         140.2005  145.5851  160.1912 C.ar    1  UNL1        0.1263
      4 N         139.5750  145.5262  161.5533 N.ar    1  UNL1       -0.1633
      5 N         139.9602  144.4360  162.5088 N.ar    1  UNL1       -0.2270
      6 C         139.5159  144.1237  163.9071 C.ar    1  UNL1        0.1004
      7 C         140.2519  142.8994  164.3647 C.ar    1  UNL1        0.0207
      8 C         141.1510  142.4550  163.2492 C.ar    1  UNL1        0.0219
      9 C         140.9707  143.4047  162.1022 C.ar    1  UNL1        0.0961
     10 C         140.1132  142.2358  165.7028 C.ar    1  UNL1        0.0016
     11 C         140.5331  142.9612  166.9467 C.ar    1  UNL1        0.0007
     12 C         140.3944  142.2976  168.2848 C.ar    1  UNL1        0.0103
     13 C         139.8357  140.9087  168.3790 C.ar    1  UNL1        0.0684
     14 C         139.4158  140.1833  167.1350 C.ar    1  UNL1        0.0103
     15 C         139.5545  140.8470  165.7969 C.ar    1  UNL1        0.0007
     16 C         139.6970  140.2452  169.7171 C.1     1  UNL1        0.1004
     17 N         139.5583  139.5817  171.0551 N.1     1  UNL1       -0.1908
     18 C         141.8365  144.6128  158.4225 C.2     1  UNL1        0.2456
     19 N         142.4792  145.8819  157.9466 N.am    1  UNL1       -0.3252
     20 O         141.8192  143.4029  157.5363 O.2     1  UNL1       -0.2703
     21 H         142.4905  146.6761  158.5283 H       1  UNL1        0.1453
     22 H         142.8897  145.9206  157.0526 H       1  UNL1        0.1453
     23 N         142.6066  142.4324  160.3335 N.pl3   1  UNL1       -0.3327
     24 H         143.4543  142.7111  159.9176 H       1  UNL1        0.1468
     25 C         144.1059  141.2032  161.4599 C.3     1  UNL1        0.0029
     26 C         143.2124  140.0105  161.2890 C.3     1  UNL1        0.0282
     27 C         144.2860  139.2940  162.0531 C.3     1  UNL1        0.0029
     28 C         142.3256  140.9765  160.5607 C.3     1  UNL1        0.0702
     29 C         141.1084  140.2311  160.0994 C.3     1  UNL1        0.0208
     30 C         141.2430  138.8044  160.5427 C.3     1  UNL1        0.0160
     31 C         142.5433  138.6682  161.2779 C.3     1  UNL1        0.0404
     32 C         143.7568  138.2322  162.0443 C.3     1  UNL1        0.0156
     33 N         142.1279  137.2346  161.4270 N.3     1  UNL1       -0.3231
     34 H         141.2235  137.0941  160.9767 H       1  UNL1        0.1188
     35 H         142.0541  137.0032  162.4176 H       1  UNL1        0.1188
@<TRIPOS>BOND
     1    25    26    1
     2    26    27    1
     3    26    28    1
     4    28    23    1
     5    23     1    1
     6     1     2   ar
     7     2    18    1
     8    18    19   am
     9    18    20    2
    10     2     3   ar
    11     3     4   ar
    12     4     5   ar
    13     5     6   ar
    14     6     7   ar
    15     7    10    1
    16    10    11   ar
    17    11    12   ar
    18    12    13   ar
    19    13    16    1
    20    16    17    3
    21    13    14   ar
    22    14    15   ar
    23     7     8   ar
    24     8     9   ar
    25    28    29    1
    26    29    30    1
    27    30    31    1
    28    31    32    1
    29    31    33    1
    30    31    26    1
    31     9     1   ar
    32     9     5   ar
    33    15    10   ar
    34    23    24    1
    35    19    21    1
    36    19    22    1
    37    33    34    1
    38    33    35    1
@<TRIPOS>MOLECULE
*****
 35 38 0 0 0
SMALL
GASTEIGER

@<TRIPOS>ATOM
      1 C         142.6468  140.8590  161.1250 C.ar    1  UNL1        0.0685
      2 C         143.2045  139.8926  160.1225 C.ar    1  UNL1        0.0885
      3 C         143.7321  138.5635  160.5751 C.ar    1  UNL1        0.1263
      4 N         143.7020  138.2006  162.0303 N.ar    1  UNL1       -0.1633
      5 N         143.1443  139.1670  163.0328 N.ar    1  UNL1       -0.2270
      6 C         142.9846  139.0877  164.5222 C.ar    1  UNL1        0.1004
      7 C         142.3582  140.3679  164.9900 C.ar    1  UNL1        0.0207
      8 C         142.1309  141.2384  163.7897 C.ar    1  UNL1        0.0219
      9 C         142.6167  140.4962  162.5801 C.ar    1  UNL1        0.0961
     10 C         142.0188  140.7164  166.4089 C.ar    1  UNL1        0.0016
     11 C         140.9620  139.9420  167.1392 C.ar    1  UNL1        0.0007
     12 C         140.6226  140.2906  168.5581 C.ar    1  UNL1        0.0103
     13 C         141.3401  141.4135  169.2468 C.ar    1  UNL1        0.0684
     14 C         142.3969  142.1879  168.5165 C.ar    1  UNL1        0.0103
     15 C         142.7363  141.8393  167.0975 C.ar    1  UNL1        0.0007
     16 C         141.0007  141.7620  170.6657 C.1     1  UNL1        0.1004
     17 N         140.6613  142.1105  172.0845 N.1     1  UNL1       -0.1908
     18 C         143.2346  140.2554  158.6673 C.2     1  UNL1        0.2456
     19 N         144.4796  140.0259  157.8628 N.am    1  UNL1       -0.3252
     20 O         142.0198  140.8477  158.0168 O.2     1  UNL1       -0.2703
     21 H         145.2769  139.6371  158.2898 H       1  UNL1        0.1453
     22 H         144.4994  140.2640  156.9077 H       1  UNL1        0.1453
     23 N         142.1192  142.1882  160.6723 N.pl3   1  UNL1       -0.3327
     24 H         142.6537  142.7490  160.0649 H       1  UNL1        0.1468
     25 C         141.9435  144.2479  161.5408 C.3     1  UNL1        0.0029
     26 C         140.4783  144.0031  161.7489 C.3     1  UNL1        0.0282
     27 C         140.4860  145.3945  162.3091 C.3     1  UNL1        0.0029
     28 C         140.7770  142.6629  161.1452 C.3     1  UNL1        0.0702
     29 C         139.4981  141.8806  161.0973 C.3     1  UNL1        0.0208
     30 C         138.4090  142.7374  161.6714 C.3     1  UNL1        0.0160
     31 C         139.0148  144.0491  162.0741 C.3     1  UNL1        0.0404
     32 C         139.3284  145.4309  162.5663 C.3     1  UNL1        0.0156
     33 N         137.6168  144.3841  162.5023 N.3     1  UNL1       -0.3231
     34 H         137.0035  143.5918  162.3108 H       1  UNL1        0.1188
     35 H         137.2892  145.2002  161.9855 H       1  UNL1        0.1188
@<TRIPOS>BOND
     1    25    26    1
     2    26    27    1
     3    26    28    1
     4    28    23    1
     5    23     1    1
     6     1     2   ar
     7     2    18    1
     8    18    19   am
     9    18    20    2
    10     2     3   ar
    11     3     4   ar
    12     4     5   ar
    13     5     6   ar
    14     6     7   ar
    15     7    10    1
    16    10    11   ar
    17    11    12   ar
    18    12    13   ar
    19    13    16    1
    20    16    17    3
    21    13    14   ar
    22    14    15   ar
    23     7     8   ar
    24     8     9   ar
    25    28    29    1
    26    29    30    1
    27    30    31    1
    28    31    32    1
    29    31    33    1
    30    31    26    1
    31     9     1   ar
    32     9     5   ar
    33    15    10   ar
    34    23    24    1
    35    19    21    1
    36    19    22    1
    37    33    34    1
    38    33    35    1
