@<TRIPOS>MOLECULE
*****
 29 32 0 0 0
SMALL
GASTEIGER

@<TRIPOS>ATOM
      1 N         140.8091  140.5969  167.6380 N.ar    1  UNL1       -0.2729
      2 C         140.3137  140.5526  169.0531 C.ar    1  UNL1        0.0860
      3 C         141.0964  139.8153  170.0990 C.ar    1  UNL1        0.0561
      4 C         142.3744  139.1224  169.7298 C.ar    1  UNL1        0.1453
      5 C         142.8698  139.1667  168.3145 C.ar    1  UNL1        0.0980
      6 C         142.0871  139.9039  167.2687 C.ar    1  UNL1        0.2679
      7 O         142.5825  139.9482  165.8535 O.2     1  UNL1       -0.2665
      8 C         138.4612  142.8088  164.5003 C.ar    1  UNL1        0.1387
      9 C         139.4491  143.5451  165.3558 C.ar    1  UNL1        0.0384
     10 C         140.2317  142.8078  166.4016 C.ar    1  UNL1        0.0207
     11 C         140.0264  141.3342  166.5920 C.ar    1  UNL1        0.0671
     12 C         139.0385  140.5978  165.7366 C.ar    1  UNL1        0.0207
     13 C         138.2559  141.3351  164.6907 C.ar    1  UNL1        0.0384
     14 O         137.6785  143.5461  163.4544 O.3     1  UNL1       -0.4740
     15 C         137.9694  143.3185  162.0006 C.3     1  UNL1        0.2211
     16 C         139.6625  146.1058  161.8830 C.3     1  UNL1        0.0897
     17 N         140.1457  144.7609  161.4272 N.3     1  UNL1       -0.2696
     18 C         141.4918  144.4610  160.8374 C.3     1  UNL1        0.0722
     19 C         141.5456  142.9945  160.5268 C.3     1  UNL1        0.0188
     20 C         140.2326  142.3879  160.9248 C.3     1  UNL1        0.0212
     21 C         139.3675  143.4797  161.4813 C.3     1  UNL1        0.1016
     22 O         143.1571  138.3851  170.7756 O.3     1  UNL1       -0.4704
     23 C         143.8578  137.1060  170.4251 C.3     1  UNL1        0.2320
     24 C         144.7301  136.4266  171.4388 C.ar    1  UNL1        0.0212
     25 C         145.7636  137.2147  172.1875 C.ar    1  UNL1       -0.0007
     26 C         146.6359  136.5353  173.2012 C.ar    1  UNL1       -0.0002
     27 C         146.4746  135.0677  173.4661 C.ar    1  UNL1       -0.0000
     28 C         145.4411  134.2795  172.7173 C.ar    1  UNL1       -0.0002
     29 C         144.5689  134.9590  171.7037 C.ar    1  UNL1       -0.0007
@<TRIPOS>BOND
     1    16    17    1
     2    17    18    1
     3    18    19    1
     4    19    20    1
     5    20    21    1
     6    21    15    1
     7    15    14    1
     8    14     8    1
     9     8     9   ar
    10     9    10   ar
    11    10    11   ar
    12    11     1    1
    13     1     2   ar
    14     2     3   ar
    15     3     4   ar
    16     4    22    1
    17    22    23    1
    18    23    24    1
    19    24    25   ar
    20    25    26   ar
    21    26    27   ar
    22    27    28   ar
    23    28    29   ar
    24     4     5   ar
    25     5     6   ar
    26     6     7    2
    27    11    12   ar
    28    12    13   ar
    29    21    17    1
    30    13     8   ar
    31     6     1   ar
    32    29    24   ar
@<TRIPOS>MOLECULE
*****
 29 32 0 0 0
SMALL
GASTEIGER

@<TRIPOS>ATOM
      1 N         142.5102  141.5489  167.3447 N.ar    1  UNL1       -0.2729
      2 C         142.8949  142.0735  168.6963 C.ar    1  UNL1        0.0860
      3 C         143.1397  141.1207  169.8288 C.ar    1  UNL1        0.0561
      4 C         142.9998  139.6434  169.6096 C.ar    1  UNL1        0.1453
      5 C         142.6150  139.1189  168.2579 C.ar    1  UNL1        0.0980
      6 C         142.3702  140.0716  167.1255 C.ar    1  UNL1        0.2679
      7 O         141.9855  139.5471  165.7739 O.2     1  UNL1       -0.2665
      8 C         141.7759  144.4070  163.9474 C.ar    1  UNL1        0.1387
      9 C         143.1782  144.0158  164.3086 C.ar    1  UNL1        0.0384
     10 C         143.4229  143.0631  165.4410 C.ar    1  UNL1        0.0207
     11 C         142.2654  142.5016  166.2122 C.ar    1  UNL1        0.0671
     12 C         140.8631  142.8928  165.8511 C.ar    1  UNL1        0.0207
     13 C         140.6184  143.8455  164.7186 C.ar    1  UNL1        0.0384
     14 O         141.5311  145.3598  162.8149 O.3     1  UNL1       -0.4740
     15 C         140.1744  145.4372  162.1799 C.3     1  UNL1        0.2211
     16 C         137.8398  143.1734  162.4524 C.3     1  UNL1        0.0897
     17 N         138.7085  143.4038  161.2515 N.3     1  UNL1       -0.2696
     18 C         138.6568  142.6341  159.9651 C.3     1  UNL1        0.0722
     19 C         139.6980  143.1990  159.0447 C.3     1  UNL1        0.0188
     20 C         140.3932  144.3178  159.7624 C.3     1  UNL1        0.0212
     21 C         139.7817  144.4443  161.1263 C.3     1  UNL1        0.1016
     22 O         143.2445  138.6907  170.7420 O.3     1  UNL1       -0.4704
     23 C         143.6880  137.2863  170.4579 C.3     1  UNL1        0.2320
     24 C         144.5927  136.5761  171.4209 C.ar    1  UNL1        0.0212
     25 C         145.6014  137.3526  172.2143 C.ar    1  UNL1       -0.0007
     26 C         146.5060  136.6425  173.1772 C.ar    1  UNL1       -0.0002
     27 C         146.4019  135.1557  173.3468 C.ar    1  UNL1       -0.0000
     28 C         145.3932  134.3791  172.5534 C.ar    1  UNL1       -0.0002
     29 C         144.4886  135.0893  171.5905 C.ar    1  UNL1       -0.0007
@<TRIPOS>BOND
     1    16    17    1
     2    17    18    1
     3    18    19    1
     4    19    20    1
     5    20    21    1
     6    21    15    1
     7    15    14    1
     8    14     8    1
     9     8     9   ar
    10     9    10   ar
    11    10    11   ar
    12    11     1    1
    13     1     2   ar
    14     2     3   ar
    15     3     4   ar
    16     4    22    1
    17    22    23    1
    18    23    24    1
    19    24    25   ar
    20    25    26   ar
    21    26    27   ar
    22    27    28   ar
    23    28    29   ar
    24     4     5   ar
    25     5     6   ar
    26     6     7    2
    27    11    12   ar
    28    12    13   ar
    29    21    17    1
    30    13     8   ar
    31     6     1   ar
    32    29    24   ar
@<TRIPOS>MOLECULE
*****
 29 32 0 0 0
SMALL
GASTEIGER

@<TRIPOS>ATOM
      1 N         139.9558  138.7718  162.2627 N.ar    1  UNL1       -0.2729
      2 C         139.5949  137.6230  163.1571 C.ar    1  UNL1        0.0860
      3 C         139.0104  137.8835  164.5138 C.ar    1  UNL1        0.0561
      4 C         138.7869  139.2929  164.9761 C.ar    1  UNL1        0.1453
      5 C         139.1478  140.4417  164.0816 C.ar    1  UNL1        0.0980
      6 C         139.7323  140.1812  162.7250 C.ar    1  UNL1        0.2679
      7 O         140.0932  141.3300  161.8306 O.2     1  UNL1       -0.2665
      8 C         141.7092  137.9903  158.1927 C.ar    1  UNL1        0.1387
      9 C         140.2683  138.3856  158.3253 C.ar    1  UNL1        0.0384
     10 C         139.6839  138.6461  159.6820 C.ar    1  UNL1        0.0207
     11 C         140.5403  138.5113  160.9060 C.ar    1  UNL1        0.0671
     12 C         141.9812  138.1160  160.7735 C.ar    1  UNL1        0.0207
     13 C         142.5656  137.8555  159.4168 C.ar    1  UNL1        0.0384
     14 O         142.2937  137.7298  156.8360 O.3     1  UNL1       -0.4740
     15 C         143.2081  136.5596  156.6255 C.3     1  UNL1        0.2211
     16 C         144.1003  133.6581  157.8232 C.3     1  UNL1        0.0897
     17 N         143.0534  133.8952  156.7756 N.3     1  UNL1       -0.2696
     18 C         142.2328  132.8404  156.0945 C.3     1  UNL1        0.0722
     19 C         141.3155  133.5221  155.1229 C.3     1  UNL1        0.0188
     20 C         141.5692  134.9984  155.2036 C.3     1  UNL1        0.0212
     21 C         142.6433  135.2289  156.2250 C.3     1  UNL1        0.1016
     22 O         138.2024  139.5534  166.3327 O.3     1  UNL1       -0.4704
     23 C         139.0565  139.4100  167.5574 C.3     1  UNL1        0.2320
     24 C         139.5729  140.6312  168.2589 C.ar    1  UNL1        0.0212
     25 C         139.3057  140.8250  169.7221 C.ar    1  UNL1       -0.0007
     26 C         139.8221  142.0461  170.4235 C.ar    1  UNL1       -0.0002
     27 C         140.6057  143.0735  169.6617 C.ar    1  UNL1       -0.0000
     28 C         140.8730  142.8798  168.1985 C.ar    1  UNL1       -0.0002
     29 C         140.3566  141.6586  167.4971 C.ar    1  UNL1       -0.0007
@<TRIPOS>BOND
     1    16    17    1
     2    17    18    1
     3    18    19    1
     4    19    20    1
     5    20    21    1
     6    21    15    1
     7    15    14    1
     8    14     8    1
     9     8     9   ar
    10     9    10   ar
    11    10    11   ar
    12    11     1    1
    13     1     2   ar
    14     2     3   ar
    15     3     4   ar
    16     4    22    1
    17    22    23    1
    18    23    24    1
    19    24    25   ar
    20    25    26   ar
    21    26    27   ar
    22    27    28   ar
    23    28    29   ar
    24     4     5   ar
    25     5     6   ar
    26     6     7    2
    27    11    12   ar
    28    12    13   ar
    29    21    17    1
    30    13     8   ar
    31     6     1   ar
    32    29    24   ar
@<TRIPOS>MOLECULE
*****
 29 32 0 0 0
SMALL
GASTEIGER

@<TRIPOS>ATOM
      1 N         139.6401  143.7552  160.1319 N.ar    1  UNL1       -0.2729
      2 C         139.4031  143.0560  158.8262 C.ar    1  UNL1        0.0860
      3 C         139.7089  143.7551  157.5347 C.ar    1  UNL1        0.0561
      4 C         140.2516  145.1534  157.5490 C.ar    1  UNL1        0.1453
      5 C         140.4886  145.8526  158.8548 C.ar    1  UNL1        0.0980
      6 C         140.1829  145.1535  160.1462 C.ar    1  UNL1        0.2679
      7 O         140.4199  145.8527  161.4520 O.2     1  UNL1       -0.2665
      8 C         138.7229  141.6580  164.0062 C.ar    1  UNL1        0.1387
      9 C         140.1419  141.7746  163.5342 C.ar    1  UNL1        0.0384
     10 C         140.4476  142.4737  162.2428 C.ar    1  UNL1        0.0207
     11 C         139.3343  143.0561  161.4234 C.ar    1  UNL1        0.0671
     12 C         137.9153  142.9395  161.8954 C.ar    1  UNL1        0.0207
     13 C         137.6096  142.2404  163.1868 C.ar    1  UNL1        0.0384
     14 O         138.4171  140.9589  165.2977 O.3     1  UNL1       -0.4740
     15 C         138.3065  139.4634  165.3331 C.3     1  UNL1        0.2211
     16 C         138.0788  138.5508  162.2082 C.3     1  UNL1        0.0897
     17 N         139.1925  138.2007  163.1500 N.3     1  UNL1       -0.2696
     18 C         140.3970  137.3696  162.8208 C.3     1  UNL1        0.0722
     19 C         141.2462  137.2754  164.0538 C.3     1  UNL1        0.0188
     20 C         140.5664  138.0483  165.1450 C.3     1  UNL1        0.0212
     21 C         139.2971  138.6201  164.5863 C.3     1  UNL1        0.1016
     22 O         140.5574  145.8525  156.2576 O.3     1  UNL1       -0.4704
     23 C         139.4413  146.4026  155.4201 C.3     1  UNL1        0.2320
     24 C         139.2854  147.8858  155.2587 C.ar    1  UNL1        0.0212
     25 C         139.8047  148.5647  154.0261 C.ar    1  UNL1       -0.0007
     26 C         139.6489  150.0478  153.8647 C.ar    1  UNL1       -0.0002
     27 C         138.9737  150.8520  154.9359 C.ar    1  UNL1       -0.0000
     28 C         138.4543  150.1730  156.1685 C.ar    1  UNL1       -0.0002
     29 C         138.6102  148.6899  156.3299 C.ar    1  UNL1       -0.0007
@<TRIPOS>BOND
     1    16    17    1
     2    17    18    1
     3    18    19    1
     4    19    20    1
     5    20    21    1
     6    21    15    1
     7    15    14    1
     8    14     8    1
     9     8     9   ar
    10     9    10   ar
    11    10    11   ar
    12    11     1    1
    13     1     2   ar
    14     2     3   ar
    15     3     4   ar
    16     4    22    1
    17    22    23    1
    18    23    24    1
    19    24    25   ar
    20    25    26   ar
    21    26    27   ar
    22    27    28   ar
    23    28    29   ar
    24     4     5   ar
    25     5     6   ar
    26     6     7    2
    27    11    12   ar
    28    12    13   ar
    29    21    17    1
    30    13     8   ar
    31     6     1   ar
    32    29    24   ar
@<TRIPOS>MOLECULE
*****
 29 32 0 0 0
SMALL
GASTEIGER

@<TRIPOS>ATOM
      1 N         140.7838  138.5004  160.6585 N.ar    1  UNL1       -0.2729
      2 C         142.2026  138.0138  160.6518 C.ar    1  UNL1        0.0860
      3 C         142.8813  137.6988  159.3517 C.ar    1  UNL1        0.0561
      4 C         142.1412  137.8706  158.0584 C.ar    1  UNL1        0.1453
      5 C         140.7223  138.3572  158.0651 C.ar    1  UNL1        0.0980
      6 C         140.0436  138.6722  159.3652 C.ar    1  UNL1        0.2679
      7 O         138.6247  139.1588  159.3719 O.2     1  UNL1       -0.2665
      8 C         138.7476  139.4454  164.5586 C.ar    1  UNL1        0.1387
      9 C         139.3119  140.5532  163.7195 C.ar    1  UNL1        0.0384
     10 C         139.9906  140.2382  162.4195 C.ar    1  UNL1        0.0207
     11 C         140.1050  138.8154  161.9586 C.ar    1  UNL1        0.0671
     12 C         139.5407  137.7075  162.7977 C.ar    1  UNL1        0.0207
     13 C         138.8620  138.0225  164.0977 C.ar    1  UNL1        0.0384
     14 O         138.0688  139.7603  165.8587 O.3     1  UNL1       -0.4740
     15 C         138.5346  139.1063  167.1257 C.3     1  UNL1        0.2211
     16 C         141.6215  140.0678  166.6829 C.3     1  UNL1        0.0897
     17 N         140.7858  140.3203  167.9027 N.3     1  UNL1       -0.2696
     18 C         141.2222  141.0590  169.1330 C.3     1  UNL1        0.0722
     19 C         140.0731  141.0736  170.0970 C.3     1  UNL1        0.0188
     20 C         138.9263  140.3439  169.4624 C.3     1  UNL1        0.0212
     21 C         139.3669  139.8783  168.1062 C.3     1  UNL1        0.1016
     22 O         142.8199  137.5556  156.7583 O.3     1  UNL1       -0.4704
     23 C         142.1983  136.5782  155.8054 C.3     1  UNL1        0.2320
     24 C         142.3614  135.1041  156.0303 C.ar    1  UNL1        0.0212
     25 C         143.3903  134.6027  156.9998 C.ar    1  UNL1       -0.0007
     26 C         143.5534  133.1287  157.2247 C.ar    1  UNL1       -0.0002
     27 C         142.6876  132.1561  156.4802 C.ar    1  UNL1       -0.0000
     28 C         141.6587  132.6575  155.5107 C.ar    1  UNL1       -0.0002
     29 C         141.4956  134.1315  155.2858 C.ar    1  UNL1       -0.0007
@<TRIPOS>BOND
     1    16    17    1
     2    17    18    1
     3    18    19    1
     4    19    20    1
     5    20    21    1
     6    21    15    1
     7    15    14    1
     8    14     8    1
     9     8     9   ar
    10     9    10   ar
    11    10    11   ar
    12    11     1    1
    13     1     2   ar
    14     2     3   ar
    15     3     4   ar
    16     4    22    1
    17    22    23    1
    18    23    24    1
    19    24    25   ar
    20    25    26   ar
    21    26    27   ar
    22    27    28   ar
    23    28    29   ar
    24     4     5   ar
    25     5     6   ar
    26     6     7    2
    27    11    12   ar
    28    12    13   ar
    29    21    17    1
    30    13     8   ar
    31     6     1   ar
    32    29    24   ar
@<TRIPOS>MOLECULE
*****
 29 32 0 0 0
SMALL
GASTEIGER

@<TRIPOS>ATOM
      1 N         140.1913  143.5256  162.3495 N.ar    1  UNL1       -0.2729
      2 C         141.5092  143.0851  162.9142 C.ar    1  UNL1        0.0860
      3 C         141.6425  142.8139  164.3836 C.ar    1  UNL1        0.0561
      4 C         140.4579  142.9834  165.2880 C.ar    1  UNL1        0.1453
      5 C         139.1400  143.4240  164.7231 C.ar    1  UNL1        0.0980
      6 C         139.0067  143.6951  163.2539 C.ar    1  UNL1        0.2679
      7 O         137.6888  144.1357  162.6891 O.2     1  UNL1       -0.2665
      8 C         139.7913  144.3391  157.9417 C.ar    1  UNL1        0.1387
      9 C         140.3702  145.3849  158.8478 C.ar    1  UNL1        0.0384
     10 C         140.5035  145.1137  160.3171 C.ar    1  UNL1        0.0207
     11 C         140.0579  143.7968  160.8802 C.ar    1  UNL1        0.0671
     12 C         139.4790  142.7510  159.9740 C.ar    1  UNL1        0.0207
     13 C         139.3457  143.0221  158.5048 C.ar    1  UNL1        0.0384
     14 O         139.6579  144.6102  156.4724 O.3     1  UNL1       -0.4740
     15 C         140.5528  145.6161  155.8111 C.3     1  UNL1        0.2211
     16 C         141.2286  147.2234  153.0526 C.3     1  UNL1        0.0897
     17 N         140.3211  147.6968  154.1491 N.3     1  UNL1       -0.2696
     18 C         139.5649  148.9920  154.1702 C.3     1  UNL1        0.0722
     19 C         138.7868  149.0538  155.4512 C.3     1  UNL1        0.0188
     20 C         139.0622  147.7966  156.2218 C.3     1  UNL1        0.0212
     21 C         140.0104  146.9580  155.4170 C.3     1  UNL1        0.1016
     22 O         140.5912  142.7123  166.7572 O.3     1  UNL1       -0.4704
     23 C         140.8831  141.3224  167.2399 C.3     1  UNL1        0.2320
     24 C         140.2238  140.1463  166.5826 C.ar    1  UNL1        0.0212
     25 C         140.9644  139.3536  165.5467 C.ar    1  UNL1       -0.0007
     26 C         140.3051  138.1775  164.8894 C.ar    1  UNL1       -0.0002
     27 C         138.9053  137.7940  165.2680 C.ar    1  UNL1       -0.0000
     28 C         138.1647  138.5867  166.3040 C.ar    1  UNL1       -0.0002
     29 C         138.8240  139.7628  166.9612 C.ar    1  UNL1       -0.0007
@<TRIPOS>BOND
     1    16    17    1
     2    17    18    1
     3    18    19    1
     4    19    20    1
     5    20    21    1
     6    21    15    1
     7    15    14    1
     8    14     8    1
     9     8     9   ar
    10     9    10   ar
    11    10    11   ar
    12    11     1    1
    13     1     2   ar
    14     2     3   ar
    15     3     4   ar
    16     4    22    1
    17    22    23    1
    18    23    24    1
    19    24    25   ar
    20    25    26   ar
    21    26    27   ar
    22    27    28   ar
    23    28    29   ar
    24     4     5   ar
    25     5     6   ar
    26     6     7    2
    27    11    12   ar
    28    12    13   ar
    29    21    17    1
    30    13     8   ar
    31     6     1   ar
    32    29    24   ar
@<TRIPOS>MOLECULE
*****
 29 32 0 0 0
SMALL
GASTEIGER

@<TRIPOS>ATOM
      1 N         140.9602  139.2781  163.0116 N.ar    1  UNL1       -0.2729
      2 C         141.7793  140.0237  164.0230 C.ar    1  UNL1        0.0860
      3 C         141.1975  140.3487  165.3669 C.ar    1  UNL1        0.0561
      4 C         139.7966  139.9280  165.6994 C.ar    1  UNL1        0.1453
      5 C         138.9775  139.1823  164.6878 C.ar    1  UNL1        0.0980
      6 C         139.5592  138.8574  163.3440 C.ar    1  UNL1        0.2679
      7 O         138.7401  138.1118  162.3325 O.2     1  UNL1       -0.2665
      8 C         142.7054  138.3032  158.9800 C.ar    1  UNL1        0.1387
      9 C         143.0584  137.4648  160.1727 C.ar    1  UNL1        0.0384
     10 C         142.4767  137.7898  161.5165 C.ar    1  UNL1        0.0207
     11 C         141.5419  138.9531  161.6677 C.ar    1  UNL1        0.0671
     12 C         141.1889  139.7915  160.4750 C.ar    1  UNL1        0.0207
     13 C         141.7706  139.4665  159.1312 C.ar    1  UNL1        0.0384
     14 O         143.2871  137.9782  157.6361 O.3     1  UNL1       -0.4740
     15 C         142.4554  137.2655  156.6113 C.3     1  UNL1        0.2211
     16 C         140.8698  135.4321  154.4264 C.3     1  UNL1        0.0897
     17 N         141.7770  134.9268  155.5087 N.3     1  UNL1       -0.2696
     18 C         142.1147  133.4901  155.7768 C.3     1  UNL1        0.0722
     19 C         143.0523  133.4448  156.9469 C.3     1  UNL1        0.0188
     20 C         143.2940  134.8537  157.4019 C.3     1  UNL1        0.0212
     21 C         142.5059  135.7695  156.5130 C.3     1  UNL1        0.1016
     22 O         139.2149  140.2529  167.0432 O.3     1  UNL1       -0.4704
     23 C         139.9806  139.9259  168.2908 C.3     1  UNL1        0.2320
     24 C         140.8909  140.9495  168.9022 C.ar    1  UNL1        0.0212
     25 C         142.3330  140.6188  169.1487 C.ar    1  UNL1       -0.0007
     26 C         143.2433  141.6424  169.7600 C.ar    1  UNL1       -0.0002
     27 C         142.7113  142.9966  170.1248 C.ar    1  UNL1       -0.0000
     28 C         141.2692  143.3273  169.8783 C.ar    1  UNL1       -0.0002
     29 C         140.3590  142.3037  169.2670 C.ar    1  UNL1       -0.0007
@<TRIPOS>BOND
     1    16    17    1
     2    17    18    1
     3    18    19    1
     4    19    20    1
     5    20    21    1
     6    21    15    1
     7    15    14    1
     8    14     8    1
     9     8     9   ar
    10     9    10   ar
    11    10    11   ar
    12    11     1    1
    13     1     2   ar
    14     2     3   ar
    15     3     4   ar
    16     4    22    1
    17    22    23    1
    18    23    24    1
    19    24    25   ar
    20    25    26   ar
    21    26    27   ar
    22    27    28   ar
    23    28    29   ar
    24     4     5   ar
    25     5     6   ar
    26     6     7    2
    27    11    12   ar
    28    12    13   ar
    29    21    17    1
    30    13     8   ar
    31     6     1   ar
    32    29    24   ar
@<TRIPOS>MOLECULE
*****
 29 32 0 0 0
SMALL
GASTEIGER

@<TRIPOS>ATOM
      1 N         141.3931  140.8908  167.3331 N.ar    1  UNL1       -0.2729
      2 C         142.2600  139.7039  167.0337 C.ar    1  UNL1        0.0860
      3 C         142.8961  138.9376  168.1555 C.ar    1  UNL1        0.0561
      4 C         142.6652  139.3584  169.5767 C.ar    1  UNL1        0.1453
      5 C         141.7983  140.5453  169.8760 C.ar    1  UNL1        0.0980
      6 C         141.1623  141.3115  168.7543 C.ar    1  UNL1        0.2679
      7 O         140.2953  142.4985  169.0536 O.2     1  UNL1       -0.2665
      8 C         139.4849  143.1894  163.9678 C.ar    1  UNL1        0.1387
      9 C         138.7753  142.0128  164.5694 C.ar    1  UNL1        0.0384
     10 C         139.4113  141.2466  165.6912 C.ar    1  UNL1        0.0207
     11 C         140.7571  141.6570  166.2113 C.ar    1  UNL1        0.0671
     12 C         141.4667  142.8336  165.6097 C.ar    1  UNL1        0.0207
     13 C         140.8307  143.5998  164.4880 C.ar    1  UNL1        0.0384
     14 O         138.8489  143.9556  162.8460 O.3     1  UNL1       -0.4740
     15 C         138.8001  143.3657  161.4678 C.3     1  UNL1        0.2211
     16 C         138.4551  142.7255  158.2865 C.3     1  UNL1        0.0897
     17 N         139.4142  143.7090  158.8890 N.3     1  UNL1       -0.2696
     18 C         140.3830  144.5708  158.1350 C.3     1  UNL1        0.0722
     19 C         141.1404  145.3978  159.1313 C.3     1  UNL1        0.0188
     20 C         140.6396  145.0469  160.5011 C.3     1  UNL1        0.0212
     21 C         139.5727  144.0032  160.3513 C.3     1  UNL1        0.1016
     22 O         143.3012  138.5922  170.6984 O.3     1  UNL1       -0.4704
     23 C         143.7203  137.1671  170.4903 C.3     1  UNL1        0.2320
     24 C         144.6351  136.5026  171.4761 C.ar    1  UNL1        0.0212
     25 C         145.6330  137.3197  172.2419 C.ar    1  UNL1       -0.0007
     26 C         146.5478  136.6552  173.2277 C.ar    1  UNL1       -0.0002
     27 C         146.4646  135.1738  173.4476 C.ar    1  UNL1       -0.0000
     28 C         145.4667  134.3567  172.6817 C.ar    1  UNL1       -0.0002
     29 C         144.5519  135.0212  171.6960 C.ar    1  UNL1       -0.0007
@<TRIPOS>BOND
     1    16    17    1
     2    17    18    1
     3    18    19    1
     4    19    20    1
     5    20    21    1
     6    21    15    1
     7    15    14    1
     8    14     8    1
     9     8     9   ar
    10     9    10   ar
    11    10    11   ar
    12    11     1    1
    13     1     2   ar
    14     2     3   ar
    15     3     4   ar
    16     4    22    1
    17    22    23    1
    18    23    24    1
    19    24    25   ar
    20    25    26   ar
    21    26    27   ar
    22    27    28   ar
    23    28    29   ar
    24     4     5   ar
    25     5     6   ar
    26     6     7    2
    27    11    12   ar
    28    12    13   ar
    29    21    17    1
    30    13     8   ar
    31     6     1   ar
    32    29    24   ar
@<TRIPOS>MOLECULE
*****
 29 32 0 0 0
SMALL
GASTEIGER

@<TRIPOS>ATOM
      1 N         141.1219  138.5651  159.4556 N.ar    1  UNL1       -0.2729
      2 C         139.8919  138.3400  158.6271 C.ar    1  UNL1        0.0860
      3 C         140.0196  137.8895  157.2020 C.ar    1  UNL1        0.0561
      4 C         141.3773  137.6642  156.6054 C.ar    1  UNL1        0.1453
      5 C         142.6073  137.8894  157.4340 C.ar    1  UNL1        0.0980
      6 C         142.4796  138.3398  158.8590 C.ar    1  UNL1        0.2679
      7 O         143.7096  138.5650  159.6876 O.2     1  UNL1       -0.2665
      8 C         140.7388  139.9164  163.7308 C.ar    1  UNL1        0.1387
      9 C         140.4752  138.4844  163.3704 C.ar    1  UNL1        0.0384
     10 C         140.6029  138.0340  161.9453 C.ar    1  UNL1        0.0207
     11 C         140.9942  139.0156  160.8807 C.ar    1  UNL1        0.0671
     12 C         141.2578  140.4475  161.2411 C.ar    1  UNL1        0.0207
     13 C         141.1301  140.8979  162.6662 C.ar    1  UNL1        0.0384
     14 O         140.6111  140.3668  165.1559 O.3     1  UNL1       -0.4740
     15 C         139.3531  141.0389  165.6202 C.3     1  UNL1        0.2211
     16 C         137.3551  141.6159  163.1053 C.3     1  UNL1        0.0897
     17 N         138.0626  142.6537  163.9254 N.3     1  UNL1       -0.2696
     18 C         137.9759  144.1388  163.7335 C.3     1  UNL1        0.0722
     19 C         138.8407  144.7915  164.7709 C.3     1  UNL1        0.0188
     20 C         139.4619  143.7096  165.6039 C.3     1  UNL1        0.0212
     21 C         138.9809  142.3884  165.0813 C.3     1  UNL1        0.1016
     22 O         141.5051  137.2138  155.1804 O.3     1  UNL1       -0.4704
     23 C         142.6051  136.2731  154.7870 C.3     1  UNL1        0.2320
     24 C         142.6477  134.8873  155.3597 C.ar    1  UNL1        0.0212
     25 C         141.6016  133.8839  154.9740 C.ar    1  UNL1       -0.0007
     26 C         141.6442  132.4983  155.5467 C.ar    1  UNL1       -0.0002
     27 C         142.7328  132.1160  156.5052 C.ar    1  UNL1       -0.0000
     28 C         143.7789  133.1194  156.8910 C.ar    1  UNL1       -0.0002
     29 C         143.7363  134.5051  156.3182 C.ar    1  UNL1       -0.0007
@<TRIPOS>BOND
     1    16    17    1
     2    17    18    1
     3    18    19    1
     4    19    20    1
     5    20    21    1
     6    21    15    1
     7    15    14    1
     8    14     8    1
     9     8     9   ar
    10     9    10   ar
    11    10    11   ar
    12    11     1    1
    13     1     2   ar
    14     2     3   ar
    15     3     4   ar
    16     4    22    1
    17    22    23    1
    18    23    24    1
    19    24    25   ar
    20    25    26   ar
    21    26    27   ar
    22    27    28   ar
    23    28    29   ar
    24     4     5   ar
    25     5     6   ar
    26     6     7    2
    27    11    12   ar
    28    12    13   ar
    29    21    17    1
    30    13     8   ar
    31     6     1   ar
    32    29    24   ar
