@<TRIPOS>MOLECULE
*****
 36 39 0 0 0
SMALL
GASTEIGER

@<TRIPOS>ATOM
      1 N         141.9208  142.7272  165.1108 N.am    1  UNL1       -0.1690
      2 C         141.6934  141.8458  163.9185 C.2     1  UNL1        0.3226
      3 O         141.6421  140.3561  164.0860 O.2     1  UNL1       -0.2510
      4 N         141.5172  142.4542  162.5587 N.am    1  UNL1       -0.2629
      5 C         141.2898  141.5728  161.3665 C.3     1  UNL1        0.0964
      6 C         141.1136  142.1812  160.0068 C.3     1  UNL1        0.0376
      7 C         141.1649  143.6709  159.8393 C.3     1  UNL1        0.0609
      8 C         141.3923  144.5523  161.0316 C.3     1  UNL1        0.0376
      9 C         141.5685  143.9439  162.3913 C.3     1  UNL1        0.0964
     10 H         141.9545  143.7050  165.0008 H       1  UNL1        0.1781
     11 N         140.9887  144.2793  158.4796 N.3     1  UNL1       -0.2736
     12 C         139.7719  143.9547  157.6647 C.3     1  UNL1        0.0758
     13 C         139.5957  144.5631  156.3050 C.3     1  UNL1        0.0609
     14 C         140.6363  145.4959  155.7602 C.3     1  UNL1        0.1687
     15 C         141.8531  145.8205  156.5751 C.3     1  UNL1        0.0609
     16 C         142.0293  145.2122  157.9348 C.3     1  UNL1        0.0758
     17 O         140.4601  146.1043  154.4004 O.3     1  UNL1       -0.4790
     18 C         140.0880  147.5515  154.2688 C.ar    1  UNL1        0.1393
     19 C         140.4833  148.3189  153.0420 C.ar    1  UNL1        0.0378
     20 C         140.1112  149.7661  152.9103 C.ar    1  UNL1        0.0154
     21 C         139.3438  150.4458  154.0055 C.ar    1  UNL1        0.0684
     22 CL        138.9717  151.8929  153.8738 Cl      1  UNL1       -0.0814
     23 C         138.9486  149.6783  155.2321 C.ar    1  UNL1        0.0712
     24 CL        138.1812  150.3580  156.3273 Cl      1  UNL1       -0.0813
     25 C         139.3207  148.2312  155.3638 C.ar    1  UNL1        0.0491
     26 S         142.0970  142.1189  166.4705 S.O2    1  UNL1        0.0797
     27 O         140.6088  142.1056  166.6573 O.2     1  UNL1       -0.1497
     28 O         143.5852  142.1322  166.2836 O.2     1  UNL1       -0.1497
     29 C         142.3718  140.0212  167.9785 C.ar    1  UNL1        0.1575
     30 C         142.5481  139.4129  169.3382 C.ar    1  UNL1        0.0383
     31 C         142.6257  140.2940  170.5497 C.ar    1  UNL1        0.0032
     32 C         142.5271  141.7834  170.4014 C.ar    1  UNL1        0.0016
     33 C         142.3508  142.3916  169.0417 C.ar    1  UNL1        0.0233
     34 C         142.2732  141.5105  167.8302 C.ar    1  UNL1        0.1590
     35 C         143.5069  138.3847  166.3101 C.3     1  UNL1        0.2525
     36 O         142.2942  139.1401  166.7670 O.3     1  UNL1       -0.4701
@<TRIPOS>BOND
     1    35    36    1
     2    36    29    1
     3    29    30   ar
     4    30    31   ar
     5    31    32   ar
     6    32    33   ar
     7    33    34   ar
     8    34    26    1
     9    26    27    2
    10    26    28    2
    11    26     1    1
    12     1     2   am
    13     2     3    2
    14     2     4   am
    15     4     5    1
    16     5     6    1
    17     6     7    1
    18     7    11    1
    19    11    12    1
    20    12    13    1
    21    13    14    1
    22    14    17    1
    23    17    18    1
    24    18    19   ar
    25    19    20   ar
    26    20    21   ar
    27    21    22    1
    28    21    23   ar
    29    23    24    1
    30    23    25   ar
    31    14    15    1
    32    15    16    1
    33     7     8    1
    34     8     9    1
    35    34    29   ar
    36     9     4    1
    37    16    11    1
    38    25    18   ar
    39     1    10    1
@<TRIPOS>MOLECULE
*****
 36 39 0 0 0
SMALL
GASTEIGER

@<TRIPOS>ATOM
      1 N         141.4225  141.1348  164.8249 N.am    1  UNL1       -0.1690
      2 C         142.3578  142.1603  164.2562 C.2     1  UNL1        0.3226
      3 O         142.7755  143.3373  165.0871 O.2     1  UNL1       -0.2510
      4 N         142.8756  142.0089  162.8565 N.am    1  UNL1       -0.2629
      5 C         143.8109  143.0344  162.2877 C.3     1  UNL1        0.0964
      6 C         144.3286  142.8830  160.8881 C.3     1  UNL1        0.0376
      7 C         143.9110  141.7061  160.0572 C.3     1  UNL1        0.0609
      8 C         142.9756  140.6806  160.6260 C.3     1  UNL1        0.0376
      9 C         142.4579  140.8320  162.0256 C.3     1  UNL1        0.0964
     10 H         141.1484  140.3624  164.2795 H       1  UNL1        0.1781
     11 N         144.4287  141.5546  158.6575 N.3     1  UNL1       -0.2736
     12 C         145.4024  142.5534  158.1058 C.3     1  UNL1        0.0758
     13 C         145.9201  142.4020  156.7062 C.3     1  UNL1        0.0609
     14 C         145.4642  141.2518  155.8583 C.3     1  UNL1        0.1687
     15 C         144.4905  140.2530  156.4099 C.3     1  UNL1        0.0609
     16 C         143.9727  140.4044  157.8096 C.3     1  UNL1        0.0758
     17 O         145.9819  141.1004  154.4586 O.3     1  UNL1       -0.4790
     18 C         147.2277  141.8220  154.0375 C.ar    1  UNL1        0.1393
     19 C         147.1398  142.9757  153.0828 C.ar    1  UNL1        0.0378
     20 C         148.3856  143.6973  152.6618 C.ar    1  UNL1        0.0154
     21 C         149.7193  143.2652  153.1955 C.ar    1  UNL1        0.0684
     22 CL        150.9651  143.9868  152.7745 Cl      1  UNL1       -0.0814
     23 C         149.8071  142.1116  154.1501 C.ar    1  UNL1        0.0712
     24 CL        151.1408  141.6795  154.6838 Cl      1  UNL1       -0.0813
     25 C         148.5613  141.3900  154.5712 C.ar    1  UNL1        0.0491
     26 S         140.9047  141.2863  166.2245 S.O2    1  UNL1        0.0797
     27 O         142.1085  140.5605  166.7483 O.2     1  UNL1       -0.1497
     28 O         139.7010  142.0120  165.7008 O.2     1  UNL1       -0.1497
     29 C         139.5925  140.3320  168.2537 C.ar    1  UNL1        0.1575
     30 C         139.0748  140.4835  169.6533 C.ar    1  UNL1        0.0383
     31 C         139.3515  141.7406  170.4234 C.ar    1  UNL1        0.0032
     32 C         140.1459  142.8463  169.7939 C.ar    1  UNL1        0.0016
     33 C         140.6637  142.6948  168.3943 C.ar    1  UNL1        0.0233
     34 C         140.3870  141.4377  167.6242 C.ar    1  UNL1        0.1590
     35 C         138.0249  138.9227  166.7351 C.3     1  UNL1        0.2525
     36 O         139.3158  139.0749  167.4836 O.3     1  UNL1       -0.4701
@<TRIPOS>BOND
     1    35    36    1
     2    36    29    1
     3    29    30   ar
     4    30    31   ar
     5    31    32   ar
     6    32    33   ar
     7    33    34   ar
     8    34    26    1
     9    26    27    2
    10    26    28    2
    11    26     1    1
    12     1     2   am
    13     2     3    2
    14     2     4   am
    15     4     5    1
    16     5     6    1
    17     6     7    1
    18     7    11    1
    19    11    12    1
    20    12    13    1
    21    13    14    1
    22    14    17    1
    23    17    18    1
    24    18    19   ar
    25    19    20   ar
    26    20    21   ar
    27    21    22    1
    28    21    23   ar
    29    23    24    1
    30    23    25   ar
    31    14    15    1
    32    15    16    1
    33     7     8    1
    34     8     9    1
    35    34    29   ar
    36     9     4    1
    37    16    11    1
    38    25    18   ar
    39     1    10    1
@<TRIPOS>MOLECULE
*****
 36 39 0 0 0
SMALL
GASTEIGER

@<TRIPOS>ATOM
      1 N         142.6345  135.8761  157.1535 N.am    1  UNL1       -0.1690
      2 C         142.6822  137.3753  157.1609 C.2     1  UNL1        0.3226
      3 O         142.5809  138.1353  155.8716 O.2     1  UNL1       -0.2510
      4 N         142.8311  138.1146  158.4576 N.am    1  UNL1       -0.2629
      5 C         142.8788  139.6139  158.4649 C.3     1  UNL1        0.0964
      6 C         143.0278  140.3532  159.7615 C.3     1  UNL1        0.0376
      7 C         143.1290  139.5932  161.0508 C.3     1  UNL1        0.0609
      8 C         143.0813  138.0940  161.0434 C.3     1  UNL1        0.0376
      9 C         142.9324  137.3547  159.7468 C.3     1  UNL1        0.0964
     10 H         142.7009  135.3774  157.9997 H       1  UNL1        0.1781
     11 N         143.2780  140.3325  162.3475 N.3     1  UNL1       -0.2736
     12 C         144.1312  139.7629  163.4418 C.3     1  UNL1        0.0758
     13 C         144.2802  140.5021  164.7384 C.3     1  UNL1        0.0609
     14 C         143.5759  141.8110  164.9407 C.3     1  UNL1        0.1687
     15 C         142.7227  142.3806  163.8464 C.3     1  UNL1        0.0609
     16 C         142.5737  141.6413  162.5498 C.3     1  UNL1        0.0758
     17 O         143.7249  142.5503  166.2374 O.3     1  UNL1       -0.4790
     18 C         142.9766  142.0901  167.4533 C.ar    1  UNL1        0.1393
     19 C         143.4879  142.4302  168.8219 C.ar    1  UNL1        0.0378
     20 C         142.7396  141.9701  170.0378 C.ar    1  UNL1        0.0154
     21 C         141.4800  141.1699  169.8851 C.ar    1  UNL1        0.0684
     22 CL        140.7318  140.7098  171.1009 Cl      1  UNL1       -0.0814
     23 C         140.9688  140.8298  168.5165 C.ar    1  UNL1        0.0712
     24 CL        139.7093  140.0296  168.3638 Cl      1  UNL1       -0.0813
     25 C         141.7171  141.2900  167.3006 C.ar    1  UNL1        0.0491
     26 S         142.4855  135.1368  155.8569 S.O2    1  UNL1        0.0797
     27 O         143.9639  134.8844  155.8310 O.2     1  UNL1       -0.1497
     28 O         141.0072  135.3892  155.8828 O.2     1  UNL1       -0.1497
     29 C         142.5366  132.9116  154.5169 C.ar    1  UNL1        0.1575
     30 C         142.3876  132.1723  153.2203 C.ar    1  UNL1        0.0383
     31 C         142.0385  132.9190  151.9670 C.ar    1  UNL1        0.0032
     32 C         141.8384  134.4049  152.0104 C.ar    1  UNL1        0.0016
     33 C         141.9874  135.1442  153.3070 C.ar    1  UNL1        0.0233
     34 C         142.3365  134.3975  154.5603 C.ar    1  UNL1        0.1590
     35 C         143.9645  131.1229  155.7465 C.3     1  UNL1        0.2525
     36 O         142.8857  132.1649  155.7701 O.3     1  UNL1       -0.4701
@<TRIPOS>BOND
     1    35    36    1
     2    36    29    1
     3    29    30   ar
     4    30    31   ar
     5    31    32   ar
     6    32    33   ar
     7    33    34   ar
     8    34    26    1
     9    26    27    2
    10    26    28    2
    11    26     1    1
    12     1     2   am
    13     2     3    2
    14     2     4   am
    15     4     5    1
    16     5     6    1
    17     6     7    1
    18     7    11    1
    19    11    12    1
    20    12    13    1
    21    13    14    1
    22    14    17    1
    23    17    18    1
    24    18    19   ar
    25    19    20   ar
    26    20    21   ar
    27    21    22    1
    28    21    23   ar
    29    23    24    1
    30    23    25   ar
    31    14    15    1
    32    15    16    1
    33     7     8    1
    34     8     9    1
    35    34    29   ar
    36     9     4    1
    37    16    11    1
    38    25    18   ar
    39     1    10    1
@<TRIPOS>MOLECULE
*****
 36 39 0 0 0
SMALL
GASTEIGER

@<TRIPOS>ATOM
      1 N         141.6974  139.8411  165.4610 N.am    1  UNL1       -0.1690
      2 C         141.1378  140.6121  164.3023 C.2     1  UNL1        0.3226
      3 O         140.5510  141.9750  164.5217 O.2     1  UNL1       -0.2510
      4 N         141.1651  140.0202  162.9243 N.am    1  UNL1       -0.2629
      5 C         140.6056  140.7912  161.7656 C.3     1  UNL1        0.0964
      6 C         140.6328  140.1993  160.3877 C.3     1  UNL1        0.0376
      7 C         141.2197  138.8364  160.1683 C.3     1  UNL1        0.0609
      8 C         141.7792  138.0654  161.3270 C.3     1  UNL1        0.0376
      9 C         141.7519  138.6573  162.7049 C.3     1  UNL1        0.0964
     10 H         142.0825  138.9466  165.3170 H       1  UNL1        0.1781
     11 N         141.2470  138.2445  158.7903 N.3     1  UNL1       -0.2736
     12 C         139.9706  138.0784  158.0199 C.3     1  UNL1        0.0758
     13 C         139.9979  137.4865  156.6420 C.3     1  UNL1        0.0609
     14 C         141.3014  137.0607  156.0343 C.3     1  UNL1        0.1687
     15 C         142.5778  137.2267  156.8047 C.3     1  UNL1        0.0609
     16 C         142.5505  137.8186  158.1826 C.3     1  UNL1        0.0758
     17 O         141.3287  136.4687  154.6563 O.3     1  UNL1       -0.4790
     18 C         141.6966  135.0270  154.4665 C.ar    1  UNL1        0.1393
     19 C         141.7896  134.4524  153.0840 C.ar    1  UNL1        0.0378
     20 C         142.1574  133.0106  152.8942 C.ar    1  UNL1        0.0154
     21 C         142.4323  132.1434  154.0870 C.ar    1  UNL1        0.0684
     22 CL        142.8001  130.7017  153.8972 Cl      1  UNL1       -0.0814
     23 C         142.3392  132.7180  155.4694 C.ar    1  UNL1        0.0712
     24 CL        142.6140  131.8509  156.6621 Cl      1  UNL1       -0.0813
     25 C         141.9714  134.1598  155.6592 C.ar    1  UNL1        0.0491
     26 S         141.6701  140.4330  166.8390 S.O2    1  UNL1        0.0797
     27 O         142.9979  141.0833  166.5859 O.2     1  UNL1       -0.1497
     28 O         140.3423  139.7827  167.0920 O.2     1  UNL1       -0.1497
     29 C         142.2382  140.2710  169.3690 C.ar    1  UNL1        0.1575
     30 C         142.2109  140.8629  170.7470 C.ar    1  UNL1        0.0383
     31 C         141.5881  142.2087  170.9730 C.ar    1  UNL1        0.0032
     32 C         140.9926  142.9625  169.8210 C.ar    1  UNL1        0.0016
     33 C         141.0200  142.3706  168.4430 C.ar    1  UNL1        0.0233
     34 C         141.6428  141.0249  168.2170 C.ar    1  UNL1        0.1590
     35 C         143.0574  137.9865  170.2963 C.3     1  UNL1        0.2525
     36 O         142.8610  138.9253  169.1430 O.3     1  UNL1       -0.4701
@<TRIPOS>BOND
     1    35    36    1
     2    36    29    1
     3    29    30   ar
     4    30    31   ar
     5    31    32   ar
     6    32    33   ar
     7    33    34   ar
     8    34    26    1
     9    26    27    2
    10    26    28    2
    11    26     1    1
    12     1     2   am
    13     2     3    2
    14     2     4   am
    15     4     5    1
    16     5     6    1
    17     6     7    1
    18     7    11    1
    19    11    12    1
    20    12    13    1
    21    13    14    1
    22    14    17    1
    23    17    18    1
    24    18    19   ar
    25    19    20   ar
    26    20    21   ar
    27    21    22    1
    28    21    23   ar
    29    23    24    1
    30    23    25   ar
    31    14    15    1
    32    15    16    1
    33     7     8    1
    34     8     9    1
    35    34    29   ar
    36     9     4    1
    37    16    11    1
    38    25    18   ar
    39     1    10    1
@<TRIPOS>MOLECULE
*****
 36 39 0 0 0
SMALL
GASTEIGER

@<TRIPOS>ATOM
      1 N         143.0786  133.8523  156.5817 N.am    1  UNL1       -0.1690
      2 C         143.0559  135.1325  155.8002 C.2     1  UNL1        0.3226
      3 O         143.1316  135.0985  154.3026 O.2     1  UNL1       -0.2510
      4 N         142.9575  136.4468  156.5166 N.am    1  UNL1       -0.2629
      5 C         142.9347  137.7270  155.7352 C.3     1  UNL1        0.0964
      6 C         142.8363  139.0412  156.4514 C.3     1  UNL1        0.0376
      7 C         142.7606  139.0752  157.9491 C.3     1  UNL1        0.0609
      8 C         142.7833  137.7951  158.7305 C.3     1  UNL1        0.0376
      9 C         142.8818  136.4808  158.0143 C.3     1  UNL1        0.0964
     10 H         143.0290  133.8747  157.5647 H       1  UNL1        0.1781
     11 N         142.6622  140.3895  158.6654 N.3     1  UNL1       -0.2736
     12 C         143.8074  140.8741  159.5042 C.3     1  UNL1        0.0758
     13 C         143.7090  142.1883  160.2205 C.3     1  UNL1        0.0609
     14 C         142.4654  143.0179  160.0981 C.3     1  UNL1        0.1687
     15 C         141.3201  142.5333  159.2593 C.3     1  UNL1        0.0609
     16 C         141.4185  141.2191  158.5430 C.3     1  UNL1        0.0758
     17 O         142.3669  144.3322  160.8144 O.3     1  UNL1       -0.4790
     18 C         141.4195  144.4892  161.9666 C.ar    1  UNL1        0.1393
     19 C         140.2033  145.3558  161.8249 C.ar    1  UNL1        0.0378
     20 C         139.2558  145.5128  162.9771 C.ar    1  UNL1        0.0154
     21 C         139.5246  144.8032  164.2711 C.ar    1  UNL1        0.0684
     22 CL        138.5771  144.9602  165.4234 Cl      1  UNL1       -0.0814
     23 C         140.7407  143.9367  164.4128 C.ar    1  UNL1        0.0712
     24 CL        141.0095  143.2271  165.7068 Cl      1  UNL1       -0.0813
     25 C         141.6882  143.7797  163.2606 C.ar    1  UNL1        0.0491
     26 S         143.1771  132.5381  155.8654 S.O2    1  UNL1        0.0797
     27 O         144.6695  132.5697  156.0125 O.2     1  UNL1       -0.1497
     28 O         141.6847  132.5065  155.7183 O.2     1  UNL1       -0.1497
     29 C         143.2822  129.9429  155.9296 C.ar    1  UNL1        0.1575
     30 C         143.3806  128.6287  155.2133 C.ar    1  UNL1        0.0383
     31 C         143.4722  128.5954  153.7165 C.ar    1  UNL1        0.0032
     32 C         143.4655  129.8763  152.9360 C.ar    1  UNL1        0.0016
     33 C         143.3671  131.1905  153.6523 C.ar    1  UNL1        0.0233
     34 C         143.2755  131.2238  155.1491 C.ar    1  UNL1        0.1590
     35 C         144.4217  129.7699  158.2581 C.3     1  UNL1        0.2525
     36 O         143.1905  129.9763  157.4265 O.3     1  UNL1       -0.4701
@<TRIPOS>BOND
     1    35    36    1
     2    36    29    1
     3    29    30   ar
     4    30    31   ar
     5    31    32   ar
     6    32    33   ar
     7    33    34   ar
     8    34    26    1
     9    26    27    2
    10    26    28    2
    11    26     1    1
    12     1     2   am
    13     2     3    2
    14     2     4   am
    15     4     5    1
    16     5     6    1
    17     6     7    1
    18     7    11    1
    19    11    12    1
    20    12    13    1
    21    13    14    1
    22    14    17    1
    23    17    18    1
    24    18    19   ar
    25    19    20   ar
    26    20    21   ar
    27    21    22    1
    28    21    23   ar
    29    23    24    1
    30    23    25   ar
    31    14    15    1
    32    15    16    1
    33     7     8    1
    34     8     9    1
    35    34    29   ar
    36     9     4    1
    37    16    11    1
    38    25    18   ar
    39     1    10    1
@<TRIPOS>MOLECULE
*****
 36 39 0 0 0
SMALL
GASTEIGER

@<TRIPOS>ATOM
      1 N         143.4352  140.1579  161.4413 N.am    1  UNL1       -0.1690
      2 C         143.3283  140.3056  159.9524 C.2     1  UNL1        0.3226
      3 O         143.4146  141.6656  159.3255 O.2     1  UNL1       -0.2510
      4 N         143.1352  139.0932  159.0905 N.am    1  UNL1       -0.2629
      5 C         143.0283  139.2409  157.6016 C.3     1  UNL1        0.0964
      6 C         142.8352  138.0286  156.7396 C.3     1  UNL1        0.0376
      7 C         142.7490  136.6687  157.3665 C.3     1  UNL1        0.0609
      8 C         142.8558  136.5210  158.8554 C.3     1  UNL1        0.0376
      9 C         143.0490  137.7333  159.7174 C.3     1  UNL1        0.0964
     10 H         143.3786  139.2653  161.8528 H       1  UNL1        0.1781
     11 N         142.5559  135.4563  156.5045 N.3     1  UNL1       -0.2736
     12 C         141.7188  135.5445  155.2630 C.3     1  UNL1        0.0758
     13 C         141.5256  134.3322  154.4010 C.3     1  UNL1        0.0609
     14 C         142.1696  133.0317  154.7806 C.3     1  UNL1        0.1687
     15 C         143.0067  132.9436  156.0222 C.3     1  UNL1        0.0609
     16 C         143.1998  134.1559  156.8841 C.3     1  UNL1        0.0758
     17 O         141.9765  131.8194  153.9186 O.3     1  UNL1       -0.4790
     18 C         141.5019  130.5336  154.5282 C.ar    1  UNL1        0.1393
     19 C         140.0341  130.2303  154.5913 C.ar    1  UNL1        0.0378
     20 C         139.5595  128.9446  155.2009 C.ar    1  UNL1        0.0154
     21 C         140.5526  127.9622  155.7474 C.ar    1  UNL1        0.0684
     22 CL        140.0780  126.6764  156.3570 Cl      1  UNL1       -0.0814
     23 C         142.0202  128.2655  155.6844 C.ar    1  UNL1        0.0712
     24 CL        143.0133  127.2830  156.2309 Cl      1  UNL1       -0.0813
     25 C         142.4949  129.5512  155.0748 C.ar    1  UNL1        0.0491
     26 S         143.6283  141.3702  162.3033 S.O2    1  UNL1        0.0797
     27 O         142.1560  141.4020  162.5884 O.2     1  UNL1       -0.1497
     28 O         145.1006  141.3384  162.0182 O.2     1  UNL1       -0.1497
     29 C         143.5375  143.9481  162.6135 C.ar    1  UNL1        0.1575
     30 C         143.7307  145.1604  163.4755 C.ar    1  UNL1        0.0383
     31 C         144.2078  145.0071  164.8893 C.ar    1  UNL1        0.0032
     32 C         144.4917  143.6415  165.4411 C.ar    1  UNL1        0.0016
     33 C         144.2985  142.4292  164.5791 C.ar    1  UNL1        0.0233
     34 C         143.8215  142.5826  163.1653 C.ar    1  UNL1        0.1590
     35 C         141.6398  144.4974  160.9263 C.3     1  UNL1        0.2525
     36 O         143.0605  144.1015  161.1997 O.3     1  UNL1       -0.4701
@<TRIPOS>BOND
     1    35    36    1
     2    36    29    1
     3    29    30   ar
     4    30    31   ar
     5    31    32   ar
     6    32    33   ar
     7    33    34   ar
     8    34    26    1
     9    26    27    2
    10    26    28    2
    11    26     1    1
    12     1     2   am
    13     2     3    2
    14     2     4   am
    15     4     5    1
    16     5     6    1
    17     6     7    1
    18     7    11    1
    19    11    12    1
    20    12    13    1
    21    13    14    1
    22    14    17    1
    23    17    18    1
    24    18    19   ar
    25    19    20   ar
    26    20    21   ar
    27    21    22    1
    28    21    23   ar
    29    23    24    1
    30    23    25   ar
    31    14    15    1
    32    15    16    1
    33     7     8    1
    34     8     9    1
    35    34    29   ar
    36     9     4    1
    37    16    11    1
    38    25    18   ar
    39     1    10    1
@<TRIPOS>MOLECULE
*****
 36 39 0 0 0
SMALL
GASTEIGER

@<TRIPOS>ATOM
      1 N         141.5073  139.4904  161.5510 N.am    1  UNL1       -0.1690
      2 C         142.2367  140.7859  161.3515 C.2     1  UNL1        0.3226
      3 O         142.1288  141.8732  162.3791 O.2     1  UNL1       -0.2510
      4 N         143.0740  140.9939  160.1244 N.am    1  UNL1       -0.2629
      5 C         143.8034  142.2894  159.9250 C.3     1  UNL1        0.0964
      6 C         144.6407  142.4975  158.6980 C.3     1  UNL1        0.0376
      7 C         144.7486  141.4101  157.6704 C.3     1  UNL1        0.0609
      8 C         144.0192  140.1146  157.8699 C.3     1  UNL1        0.0376
      9 C         143.1819  139.9066  159.0969 C.3     1  UNL1        0.0964
     10 H         141.5781  138.7767  160.8765 H       1  UNL1        0.1781
     11 N         145.5859  141.6182  156.4433 N.3     1  UNL1       -0.2736
     12 C         146.8433  142.4323  156.5225 C.3     1  UNL1        0.0758
     13 C         147.6806  142.6404  155.2955 C.3     1  UNL1        0.0609
     14 C         147.2605  142.0343  153.9893 C.3     1  UNL1        0.1687
     15 C         146.0032  141.2201  153.9101 C.3     1  UNL1        0.0609
     16 C         145.1659  141.0121  155.1371 C.3     1  UNL1        0.0758
     17 O         148.0979  142.2424  152.7622 O.3     1  UNL1       -0.4790
     18 C         149.5882  142.3618  152.8827 C.ar    1  UNL1        0.1393
     19 C         150.2313  143.7165  152.9222 C.ar    1  UNL1        0.0378
     20 C         151.7217  143.8359  153.0427 C.ar    1  UNL1        0.0154
     21 C         152.5690  142.6007  153.1235 C.ar    1  UNL1        0.0684
     22 CL        154.0594  142.7202  153.2440 Cl      1  UNL1       -0.0814
     23 C         151.9259  141.2462  153.0840 C.ar    1  UNL1        0.0712
     24 CL        152.7732  140.0110  153.1648 Cl      1  UNL1       -0.0813
     25 C         150.4356  141.1267  152.9635 C.ar    1  UNL1        0.0491
     26 S         140.6700  139.2823  162.7780 S.O2    1  UNL1        0.0797
     27 O         141.8846  138.8234  163.5290 O.2     1  UNL1       -0.1497
     28 O         139.4554  139.7412  162.0270 O.2     1  UNL1       -0.1497
     29 C         139.5445  140.2268  164.9207 C.ar    1  UNL1        0.1575
     30 C         138.7072  140.0187  166.1477 C.ar    1  UNL1        0.0383
     31 C         138.1580  138.6580  166.4590 C.ar    1  UNL1        0.0032
     32 C         138.4462  137.5054  165.5433 C.ar    1  UNL1        0.0016
     33 C         139.2835  137.7135  164.3163 C.ar    1  UNL1        0.0233
     34 C         139.8327  139.0742  164.0050 C.ar    1  UNL1        0.1590
     35 C         139.1630  142.7521  164.4444 C.3     1  UNL1        0.2525
     36 O         140.0937  141.5875  164.6094 O.3     1  UNL1       -0.4701
@<TRIPOS>BOND
     1    35    36    1
     2    36    29    1
     3    29    30   ar
     4    30    31   ar
     5    31    32   ar
     6    32    33   ar
     7    33    34   ar
     8    34    26    1
     9    26    27    2
    10    26    28    2
    11    26     1    1
    12     1     2   am
    13     2     3    2
    14     2     4   am
    15     4     5    1
    16     5     6    1
    17     6     7    1
    18     7    11    1
    19    11    12    1
    20    12    13    1
    21    13    14    1
    22    14    17    1
    23    17    18    1
    24    18    19   ar
    25    19    20   ar
    26    20    21   ar
    27    21    22    1
    28    21    23   ar
    29    23    24    1
    30    23    25   ar
    31    14    15    1
    32    15    16    1
    33     7     8    1
    34     8     9    1
    35    34    29   ar
    36     9     4    1
    37    16    11    1
    38    25    18   ar
    39     1    10    1
@<TRIPOS>MOLECULE
*****
 36 39 0 0 0
SMALL
GASTEIGER

@<TRIPOS>ATOM
      1 N         142.9370  135.3207  157.1018 N.am    1  UNL1       -0.1690
      2 C         142.4793  136.7472  157.1761 C.2     1  UNL1        0.3226
      3 O         141.8889  137.4094  155.9665 O.2     1  UNL1       -0.2510
      4 N         142.6120  137.5116  158.4599 N.am    1  UNL1       -0.2629
      5 C         142.1543  138.9382  158.5341 C.3     1  UNL1        0.0964
      6 C         142.2870  139.7026  159.8179 C.3     1  UNL1        0.0376
      7 C         142.8774  139.0404  161.0274 C.3     1  UNL1        0.0609
      8 C         143.3350  137.6139  160.9532 C.3     1  UNL1        0.0376
      9 C         143.2024  136.8495  159.6694 C.3     1  UNL1        0.0964
     10 H         143.3245  134.8861  157.8957 H       1  UNL1        0.1781
     11 N         143.0101  139.8048  162.3112 N.3     1  UNL1       -0.2736
     12 C         144.2158  139.6062  163.1812 C.3     1  UNL1        0.0758
     13 C         144.3485  140.3705  164.4649 C.3     1  UNL1        0.0609
     14 C         143.2755  141.3335  164.8788 C.3     1  UNL1        0.1687
     15 C         142.0698  141.5322  164.0088 C.3     1  UNL1        0.0609
     16 C         141.9371  140.7678  162.7251 C.3     1  UNL1        0.0758
     17 O         143.4083  142.0979  166.1626 O.3     1  UNL1       -0.4790
     18 C         142.6523  141.6556  167.3804 C.ar    1  UNL1        0.1393
     19 C         142.7121  140.2230  167.8209 C.ar    1  UNL1        0.0378
     20 C         141.9561  139.7807  169.0387 C.ar    1  UNL1        0.0154
     21 C         141.1404  140.7711  169.8159 C.ar    1  UNL1        0.0684
     22 CL        140.3845  140.3288  171.0336 Cl      1  UNL1       -0.0814
     23 C         141.0807  142.2036  169.3753 C.ar    1  UNL1        0.0712
     24 CL        140.2650  143.1940  170.1524 Cl      1  UNL1       -0.0813
     25 C         141.8367  142.6459  168.1575 C.ar    1  UNL1        0.0491
     26 S         142.8043  134.5563  155.8181 S.O2    1  UNL1        0.0797
     27 O         144.0640  135.1920  155.3094 O.2     1  UNL1       -0.1497
     28 O         141.5446  133.9206  156.3268 O.2     1  UNL1       -0.1497
     29 C         141.9867  134.4181  153.3559 C.ar    1  UNL1        0.1575
     30 C         141.8540  133.6536  152.0722 C.ar    1  UNL1        0.0383
     31 C         142.4062  132.2629  151.9669 C.ar    1  UNL1        0.0032
     32 C         143.0911  131.6367  153.1453 C.ar    1  UNL1        0.0016
     33 C         143.2238  132.4011  154.4290 C.ar    1  UNL1        0.0233
     34 C         142.6716  133.7918  154.5343 C.ar    1  UNL1        0.1590
     35 C         140.2089  136.1899  152.6848 C.3     1  UNL1        0.2525
     36 O         141.4345  135.8087  153.4612 O.3     1  UNL1       -0.4701
@<TRIPOS>BOND
     1    35    36    1
     2    36    29    1
     3    29    30   ar
     4    30    31   ar
     5    31    32   ar
     6    32    33   ar
     7    33    34   ar
     8    34    26    1
     9    26    27    2
    10    26    28    2
    11    26     1    1
    12     1     2   am
    13     2     3    2
    14     2     4   am
    15     4     5    1
    16     5     6    1
    17     6     7    1
    18     7    11    1
    19    11    12    1
    20    12    13    1
    21    13    14    1
    22    14    17    1
    23    17    18    1
    24    18    19   ar
    25    19    20   ar
    26    20    21   ar
    27    21    22    1
    28    21    23   ar
    29    23    24    1
    30    23    25   ar
    31    14    15    1
    32    15    16    1
    33     7     8    1
    34     8     9    1
    35    34    29   ar
    36     9     4    1
    37    16    11    1
    38    25    18   ar
    39     1    10    1
@<TRIPOS>MOLECULE
*****
 36 39 0 0 0
SMALL
GASTEIGER

@<TRIPOS>ATOM
      1 N         140.0823  145.7768  157.1767 N.am    1  UNL1       -0.1690
      2 C         139.8529  144.2944  157.1723 C.2     1  UNL1        0.3226
      3 O         139.7073  143.5619  155.8715 O.2     1  UNL1       -0.2510
      4 N         139.7692  143.5446  158.4688 N.am    1  UNL1       -0.2629
      5 C         139.5398  142.0623  158.4645 C.3     1  UNL1        0.0964
      6 C         139.4561  141.3124  159.7609 C.3     1  UNL1        0.0376
      7 C         139.6017  142.0450  161.0617 C.3     1  UNL1        0.0609
      8 C         139.8310  143.5273  161.0661 C.3     1  UNL1        0.0376
      9 C         139.9148  144.2771  159.7696 C.3     1  UNL1        0.0964
     10 H         140.1778  146.2576  158.0305 H       1  UNL1        0.1781
     11 N         139.5179  141.2952  162.3582 N.3     1  UNL1       -0.2736
     12 C         140.7305  140.5992  162.9017 C.3     1  UNL1        0.0758
     13 C         140.6468  139.8494  164.1981 C.3     1  UNL1        0.0609
     14 C         139.3506  139.7956  164.9510 C.3     1  UNL1        0.1687
     15 C         138.1381  140.4915  164.4075 C.3     1  UNL1        0.0609
     16 C         138.2217  141.2413  163.1110 C.3     1  UNL1        0.0758
     17 O         139.2668  139.0458  166.2475 O.3     1  UNL1       -0.4790
     18 C         139.7242  139.6948  167.5201 C.ar    1  UNL1        0.1393
     19 C         138.7548  139.9048  168.6454 C.ar    1  UNL1        0.0378
     20 C         139.2122  140.5538  169.9181 C.ar    1  UNL1        0.0154
     21 C         140.6390  140.9929  170.0654 C.ar    1  UNL1        0.0684
     22 CL        141.0964  141.6419  171.3380 Cl      1  UNL1       -0.0814
     23 C         141.6083  140.7829  168.9401 C.ar    1  UNL1        0.0712
     24 CL        143.0351  141.2219  169.0874 Cl      1  UNL1       -0.0813
     25 C         141.1509  140.1338  167.6675 C.ar    1  UNL1        0.0491
     26 S         140.1660  146.5266  155.8803 S.O2    1  UNL1        0.0797
     27 O         141.6623  146.4292  155.9207 O.2     1  UNL1       -0.1497
     28 O         138.6697  146.6240  155.8400 O.2     1  UNL1       -0.1497
     29 C         139.6804  148.6603  154.4797 C.ar    1  UNL1        0.1575
     30 C         139.7641  149.4100  153.1833 C.ar    1  UNL1        0.0383
     31 C         140.4171  148.7760  151.9910 C.ar    1  UNL1        0.0032
     32 C         140.9864  147.3922  152.0951 C.ar    1  UNL1        0.0016
     33 C         140.9027  146.6424  153.3916 C.ar    1  UNL1        0.0233
     34 C         140.2497  147.2765  154.5839 C.ar    1  UNL1        0.1590
     35 C         138.5179  150.7026  155.5876 C.3     1  UNL1        0.2525
     36 O         139.0274  149.2943  155.6720 O.3     1  UNL1       -0.4701
@<TRIPOS>BOND
     1    35    36    1
     2    36    29    1
     3    29    30   ar
     4    30    31   ar
     5    31    32   ar
     6    32    33   ar
     7    33    34   ar
     8    34    26    1
     9    26    27    2
    10    26    28    2
    11    26     1    1
    12     1     2   am
    13     2     3    2
    14     2     4   am
    15     4     5    1
    16     5     6    1
    17     6     7    1
    18     7    11    1
    19    11    12    1
    20    12    13    1
    21    13    14    1
    22    14    17    1
    23    17    18    1
    24    18    19   ar
    25    19    20   ar
    26    20    21   ar
    27    21    22    1
    28    21    23   ar
    29    23    24    1
    30    23    25   ar
    31    14    15    1
    32    15    16    1
    33     7     8    1
    34     8     9    1
    35    34    29   ar
    36     9     4    1
    37    16    11    1
    38    25    18   ar
    39     1    10    1
