@<TRIPOS>MOLECULE
*****
 26 28 0 0 0
SMALL
GASTEIGER

@<TRIPOS>ATOM
      1 N         138.6246  141.3997  162.8897 N.am    1  UNL1       -0.2413
      2 C         138.0995  141.5767  161.4958 C.3     1  UNL1        0.1212
      3 C         138.1999  143.0313  161.1438 C.3     1  UNL1        0.1169
      4 N         138.7871  143.7534  162.3203 N.am    1  UNL1       -0.2606
      5 C         139.0496  142.7450  163.3992 C.2     1  UNL1        0.3111
      6 O         139.6343  143.0316  164.7505 O.2     1  UNL1       -0.2520
      7 C         138.3690  138.7479  165.8312 C.ar    1  UNL1        0.1400
      8 C         138.8802  137.5150  165.1466 C.ar    1  UNL1        0.0370
      9 C         139.3062  137.5770  163.7098 C.ar    1  UNL1        0.0044
     10 C         139.2210  138.8719  162.9575 C.ar    1  UNL1        0.0152
     11 C         138.7098  140.1047  163.6420 C.ar    1  UNL1        0.0584
     12 C         138.2838  140.0427  165.0789 C.ar    1  UNL1        0.0518
     13 C         136.9754  137.6319  167.7187 C.3     1  UNL1        0.2525
     14 O         137.9430  138.6858  167.2681 O.3     1  UNL1       -0.4714
     15 C         139.0633  145.2254  162.4031 C.3     1  UNL1        0.1123
     16 C         140.4523  145.7421  162.1714 C.3     1  UNL1        0.0939
     17 N         141.6369  144.8850  162.5062 N.3     1  UNL1       -0.2712
     18 C         142.3160  145.0305  163.8358 C.3     1  UNL1        0.0724
     19 C         143.5005  144.1735  164.1707 C.3     1  UNL1        0.0258
     20 C         144.0061  143.1710  163.1760 C.3     1  UNL1        0.0979
     21 C         143.3271  143.0255  161.8465 C.3     1  UNL1        0.0258
     22 C         142.1425  143.8826  161.5116 C.3     1  UNL1        0.0724
     23 C         145.1907  142.3139  163.5109 C.3     1  UNL1        0.3976
     24 F         146.3754  141.4568  163.8458 F       1  UNL1       -0.1701
     25 F         145.2233  142.8985  164.8919 F       1  UNL1       -0.1701
     26 F         145.1582  141.7293  162.1299 F       1  UNL1       -0.1701
@<TRIPOS>BOND
     1    13    14    1
     2    14     7    1
     3     7     8   ar
     4     8     9   ar
     5     9    10   ar
     6    10    11   ar
     7    11     1    1
     8     1     2    1
     9     2     3    1
    10     3     4    1
    11     4    15    1
    12    15    16    1
    13    16    17    1
    14    17    18    1
    15    18    19    1
    16    19    20    1
    17    20    23    1
    18    23    24    1
    19    23    25    1
    20    23    26    1
    21    20    21    1
    22    21    22    1
    23     4     5   am
    24     5     6    2
    25    11    12   ar
    26    12     7   ar
    27     5     1   am
    28    22    17    1
@<TRIPOS>MOLECULE
*****
 26 28 0 0 0
SMALL
GASTEIGER

@<TRIPOS>ATOM
      1 N         140.4573  138.5284  163.9224 N.am    1  UNL1       -0.2413
      2 C         139.8451  138.3992  162.5591 C.3     1  UNL1        0.1212
      3 C         140.9531  138.1782  161.5724 C.3     1  UNL1        0.1169
      4 N         142.2501  138.1708  162.3260 N.am    1  UNL1       -0.2606
      5 C         141.9436  138.3873  163.7784 C.2     1  UNL1        0.3111
      6 O         142.9473  138.4513  164.8912 O.2     1  UNL1       -0.2520
      7 C         139.4334  140.0468  167.4432 C.ar    1  UNL1        0.1400
      8 C         138.2262  139.2183  167.7690 C.ar    1  UNL1        0.0370
      9 C         137.7627  138.1598  166.8126 C.ar    1  UNL1        0.0044
     10 C         138.5063  137.9298  165.5304 C.ar    1  UNL1        0.0152
     11 C         139.7135  138.7583  165.2046 C.ar    1  UNL1        0.0584
     12 C         140.1771  139.8168  166.1610 C.ar    1  UNL1        0.0518
     13 C         139.6075  140.9706  169.8652 C.3     1  UNL1        0.2525
     14 O         139.8970  141.1053  168.3996 O.3     1  UNL1       -0.4714
     15 C         143.6141  137.9805  161.7316 C.3     1  UNL1        0.1123
     16 C         144.3786  139.1629  161.2145 C.3     1  UNL1        0.0939
     17 N         144.3104  140.4750  161.9383 N.3     1  UNL1       -0.2712
     18 C         143.3959  141.5569  161.4452 C.3     1  UNL1        0.0724
     19 C         143.3277  142.8689  162.1690 C.3     1  UNL1        0.0258
     20 C         144.1741  143.0990  163.3858 C.3     1  UNL1        0.0979
     21 C         145.0886  142.0171  163.8788 C.3     1  UNL1        0.0258
     22 C         145.1568  140.7051  163.1550 C.3     1  UNL1        0.0724
     23 C         144.1059  144.4111  164.1096 C.3     1  UNL1        0.3976
     24 F         144.0378  145.7232  164.8334 F       1  UNL1       -0.1701
     25 F         143.7139  145.0948  162.8333 F       1  UNL1       -0.1701
     26 F         144.4980  143.7274  165.3859 F       1  UNL1       -0.1701
@<TRIPOS>BOND
     1    13    14    1
     2    14     7    1
     3     7     8   ar
     4     8     9   ar
     5     9    10   ar
     6    10    11   ar
     7    11     1    1
     8     1     2    1
     9     2     3    1
    10     3     4    1
    11     4    15    1
    12    15    16    1
    13    16    17    1
    14    17    18    1
    15    18    19    1
    16    19    20    1
    17    20    23    1
    18    23    24    1
    19    23    25    1
    20    23    26    1
    21    20    21    1
    22    21    22    1
    23     4     5   am
    24     5     6    2
    25    11    12   ar
    26    12     7   ar
    27     5     1   am
    28    22    17    1
@<TRIPOS>MOLECULE
*****
 26 28 0 0 0
SMALL
GASTEIGER

@<TRIPOS>ATOM
      1 N         142.2510  139.2481  162.8984 N.am    1  UNL1       -0.2413
      2 C         142.0319  137.9520  163.6211 C.3     1  UNL1        0.1212
      3 C         140.7653  137.3396  163.1010 C.3     1  UNL1        0.1169
      4 N         140.2015  138.2572  162.0567 N.am    1  UNL1       -0.2606
      5 C         141.1198  139.4366  161.9316 C.2     1  UNL1        0.3111
      6 O         140.9386  140.6003  161.0026 O.2     1  UNL1       -0.2520
      7 C         144.4756  142.5325  162.7809 C.ar    1  UNL1        0.1400
      8 C         145.6970  142.0742  163.5213 C.ar    1  UNL1        0.0370
      9 C         145.7697  140.6739  164.0541 C.ar    1  UNL1        0.0044
     10 C         144.6211  139.7319  163.8464 C.ar    1  UNL1        0.0152
     11 C         143.3997  140.1901  163.1060 C.ar    1  UNL1        0.0584
     12 C         143.3270  141.5904  162.5732 C.ar    1  UNL1        0.0518
     13 C         143.8412  145.0315  163.1009 C.3     1  UNL1        0.2525
     14 O         144.4029  143.9328  162.2481 O.3     1  UNL1       -0.4714
     15 C         138.9409  138.0344  161.2750 C.3     1  UNL1        0.1123
     16 C         137.7100  138.8300  161.5941 C.3     1  UNL1        0.0939
     17 N         137.8236  140.1085  162.3703 N.3     1  UNL1       -0.2712
     18 C         138.0081  140.0686  163.8583 C.3     1  UNL1        0.0724
     19 C         138.1218  141.3471  164.6345 C.3     1  UNL1        0.0258
     20 C         138.0509  142.6655  163.9226 C.3     1  UNL1        0.0979
     21 C         137.8664  142.7054  162.4346 C.3     1  UNL1        0.0258
     22 C         137.7527  141.4268  161.6584 C.3     1  UNL1        0.0724
     23 C         138.1645  143.9440  164.6988 C.3     1  UNL1        0.3976
     24 F         138.2782  145.2226  165.4750 F       1  UNL1       -0.1701
     25 F         137.2295  144.6123  163.7349 F       1  UNL1       -0.1701
     26 F         139.0996  143.2757  165.6627 F       1  UNL1       -0.1701
@<TRIPOS>BOND
     1    13    14    1
     2    14     7    1
     3     7     8   ar
     4     8     9   ar
     5     9    10   ar
     6    10    11   ar
     7    11     1    1
     8     1     2    1
     9     2     3    1
    10     3     4    1
    11     4    15    1
    12    15    16    1
    13    16    17    1
    14    17    18    1
    15    18    19    1
    16    19    20    1
    17    20    23    1
    18    23    24    1
    19    23    25    1
    20    23    26    1
    21    20    21    1
    22    21    22    1
    23     4     5   am
    24     5     6    2
    25    11    12   ar
    26    12     7   ar
    27     5     1   am
    28    22    17    1
@<TRIPOS>MOLECULE
*****
 26 28 0 0 0
SMALL
GASTEIGER

@<TRIPOS>ATOM
      1 N         139.1559  140.5554  161.7858 N.am    1  UNL1       -0.2413
      2 C         138.3014  139.3861  161.3949 C.3     1  UNL1        0.1212
      3 C         139.1673  138.4027  160.6648 C.3     1  UNL1        0.1169
      4 N         140.5570  138.9642  160.6045 N.am    1  UNL1       -0.2606
      5 C         140.5499  140.2946  161.2973 C.2     1  UNL1        0.3111
      6 O         141.7297  141.2045  161.4712 O.2     1  UNL1       -0.2520
      7 C         138.3539  144.3445  162.6517 C.ar    1  UNL1        0.1400
      8 C         137.7787  144.2046  164.0300 C.ar    1  UNL1        0.0370
      9 C         137.6625  142.8484  164.6602 C.ar    1  UNL1        0.0044
     10 C         138.1216  141.6320  163.9121 C.ar    1  UNL1        0.0152
     11 C         138.6968  141.7718  162.5339 C.ar    1  UNL1        0.0584
     12 C         138.8130  143.1280  161.9037 C.ar    1  UNL1        0.0518
     13 C         139.8227  146.2708  161.7127 C.3     1  UNL1        0.2525
     14 O         138.4701  145.7007  162.0215 O.3     1  UNL1       -0.4714
     15 C         141.7452  138.3101  159.9639 C.3     1  UNL1        0.1123
     16 C         142.8295  137.7231  160.8181 C.3     1  UNL1        0.0939
     17 N         142.8625  138.0097  162.2901 N.3     1  UNL1       -0.2712
     18 C         143.9739  138.8342  162.8689 C.3     1  UNL1        0.0724
     19 C         144.0069  139.1208  164.3408 C.3     1  UNL1        0.0258
     20 C         142.9286  138.5829  165.2341 C.3     1  UNL1        0.0979
     21 C         141.8172  137.7584  164.6552 C.3     1  UNL1        0.0258
     22 C         141.7842  137.4718  163.1832 C.3     1  UNL1        0.0724
     23 C         142.9616  138.8695  166.7061 C.3     1  UNL1        0.3976
     24 F         142.9946  139.1561  168.1781 F       1  UNL1       -0.1701
     25 F         141.9067  139.9204  166.5251 F       1  UNL1       -0.1701
     26 F         144.0165  137.8186  166.8870 F       1  UNL1       -0.1701
@<TRIPOS>BOND
     1    13    14    1
     2    14     7    1
     3     7     8   ar
     4     8     9   ar
     5     9    10   ar
     6    10    11   ar
     7    11     1    1
     8     1     2    1
     9     2     3    1
    10     3     4    1
    11     4    15    1
    12    15    16    1
    13    16    17    1
    14    17    18    1
    15    18    19    1
    16    19    20    1
    17    20    23    1
    18    23    24    1
    19    23    25    1
    20    23    26    1
    21    20    21    1
    22    21    22    1
    23     4     5   am
    24     5     6    2
    25    11    12   ar
    26    12     7   ar
    27     5     1   am
    28    22    17    1
@<TRIPOS>MOLECULE
*****
 26 28 0 0 0
SMALL
GASTEIGER

@<TRIPOS>ATOM
      1 N         142.0256  139.3934  164.9654 N.am    1  UNL1       -0.2413
      2 C         142.4932  138.4417  163.9044 C.3     1  UNL1        0.1212
      3 C         143.8149  138.9319  163.3918 C.3     1  UNL1        0.1169
      4 N         144.1641  140.1866  164.1360 N.am    1  UNL1       -0.2606
      5 C         143.0583  140.4718  165.1085 C.2     1  UNL1        0.3111
      6 O         142.9961  141.6318  166.0574 O.2     1  UNL1       -0.2520
      7 C         139.3560  139.8396  167.8679 C.ar    1  UNL1        0.1400
      8 C         138.1968  139.0700  167.3076 C.ar    1  UNL1        0.0370
      9 C         138.3138  138.4083  165.9666 C.ar    1  UNL1        0.0044
     10 C         139.5900  138.5160  165.1858 C.ar    1  UNL1        0.0152
     11 C         140.7492  139.2856  165.7461 C.ar    1  UNL1        0.0584
     12 C         140.6322  139.9474  167.0871 C.ar    1  UNL1        0.0518
     13 C         140.1914  140.1391  170.3097 C.3     1  UNL1        0.2525
     14 O         139.2390  140.5014  169.2089 O.3     1  UNL1       -0.4714
     15 C         145.4020  141.0113  163.9418 C.3     1  UNL1        0.1123
     16 C         145.4177  142.1118  162.9226 C.3     1  UNL1        0.0939
     17 N         144.2033  142.9703  162.7270 N.3     1  UNL1       -0.2712
     18 C         143.2508  142.6777  161.6058 C.3     1  UNL1        0.0724
     19 C         142.0364  143.5362  161.4102 C.3     1  UNL1        0.0258
     20 C         141.7746  144.6872  162.3357 C.3     1  UNL1        0.0979
     21 C         142.7272  144.9797  163.4568 C.3     1  UNL1        0.0258
     22 C         143.9416  144.1212  163.6525 C.3     1  UNL1        0.0724
     23 C         140.5602  145.5457  162.1400 C.3     1  UNL1        0.3976
     24 F         139.3458  146.4042  161.9443 F       1  UNL1       -0.1701
     25 F         140.1824  145.3387  163.5768 F       1  UNL1       -0.1701
     26 F         140.9381  145.7527  160.7032 F       1  UNL1       -0.1701
@<TRIPOS>BOND
     1    13    14    1
     2    14     7    1
     3     7     8   ar
     4     8     9   ar
     5     9    10   ar
     6    10    11   ar
     7    11     1    1
     8     1     2    1
     9     2     3    1
    10     3     4    1
    11     4    15    1
    12    15    16    1
    13    16    17    1
    14    17    18    1
    15    18    19    1
    16    19    20    1
    17    20    23    1
    18    23    24    1
    19    23    25    1
    20    23    26    1
    21    20    21    1
    22    21    22    1
    23     4     5   am
    24     5     6    2
    25    11    12   ar
    26    12     7   ar
    27     5     1   am
    28    22    17    1
@<TRIPOS>MOLECULE
*****
 26 28 0 0 0
SMALL
GASTEIGER

@<TRIPOS>ATOM
      1 N         140.5210  139.4149  166.1706 N.am    1  UNL1       -0.2413
      2 C         141.7056  138.8804  165.4215 C.3     1  UNL1        0.1212
      3 C         141.2005  138.1742  164.1983 C.3     1  UNL1        0.1169
      4 N         139.7037  138.2723  164.1915 N.am    1  UNL1       -0.2606
      5 C         139.2838  139.0390  165.4104 C.2     1  UNL1        0.3111
      6 O         137.8741  139.3715  165.8005 O.2     1  UNL1       -0.2520
      7 C         141.7317  141.9270  168.9944 C.ar    1  UNL1        0.1400
      8 C         140.6556  141.7381  170.0221 C.ar    1  UNL1        0.0370
      9 C         139.5347  140.7749  169.7660 C.ar    1  UNL1        0.0044
     10 C         139.4898  140.0005  168.4822 C.ar    1  UNL1        0.0152
     11 C         140.5659  140.1893  167.4545 C.ar    1  UNL1        0.0584
     12 C         141.6868  141.1526  167.7105 C.ar    1  UNL1        0.0518
     13 C         144.0698  142.4415  170.0036 C.3     1  UNL1        0.2525
     14 O         142.8527  142.8902  169.2504 O.3     1  UNL1       -0.4714
     15 C         138.7876  137.7034  163.1488 C.3     1  UNL1        0.1123
     16 C         138.0933  138.6160  162.1818 C.3     1  UNL1        0.0939
     17 N         138.3474  140.0936  162.2306 N.3     1  UNL1       -0.2712
     18 C         139.5776  140.6646  161.5898 C.3     1  UNL1        0.0724
     19 C         139.8316  142.1420  161.6385 C.3     1  UNL1        0.0258
     20 C         138.8555  143.0486  162.3280 C.3     1  UNL1        0.0979
     21 C         137.6253  142.4776  162.9687 C.3     1  UNL1        0.0258
     22 C         137.3713  141.0000  162.9200 C.3     1  UNL1        0.0724
     23 C         139.1096  144.5261  162.3767 C.3     1  UNL1        0.3976
     24 F         139.3637  146.0037  162.4254 F       1  UNL1       -0.1701
     25 F         137.7277  144.7459  162.9171 F       1  UNL1       -0.1701
     26 F         140.4915  144.3063  161.8363 F       1  UNL1       -0.1701
@<TRIPOS>BOND
     1    13    14    1
     2    14     7    1
     3     7     8   ar
     4     8     9   ar
     5     9    10   ar
     6    10    11   ar
     7    11     1    1
     8     1     2    1
     9     2     3    1
    10     3     4    1
    11     4    15    1
    12    15    16    1
    13    16    17    1
    14    17    18    1
    15    18    19    1
    16    19    20    1
    17    20    23    1
    18    23    24    1
    19    23    25    1
    20    23    26    1
    21    20    21    1
    22    21    22    1
    23     4     5   am
    24     5     6    2
    25    11    12   ar
    26    12     7   ar
    27     5     1   am
    28    22    17    1
@<TRIPOS>MOLECULE
*****
 26 28 0 0 0
SMALL
GASTEIGER

@<TRIPOS>ATOM
      1 N         139.8418  142.1910  165.2656 N.am    1  UNL1       -0.2413
      2 C         140.4814  141.9636  166.6033 C.3     1  UNL1        0.1212
      3 C         139.8933  140.7157  167.1922 C.3     1  UNL1        0.1169
      4 N         138.8903  140.1718  166.2184 N.am    1  UNL1       -0.2606
      5 C         138.8585  141.0836  165.0278 C.2     1  UNL1        0.3111
      6 O         137.9949  140.9171  163.8127 O.2     1  UNL1       -0.2520
      7 C         141.8265  144.6890  162.9053 C.ar    1  UNL1        0.1400
      8 C         140.7194  145.5973  162.4591 C.ar    1  UNL1        0.0370
      9 C         139.3197  145.3702  162.9484 C.ar    1  UNL1        0.0044
     10 C         139.0272  144.2348  163.8839 C.ar    1  UNL1        0.0152
     11 C         140.1343  143.3265  164.3301 C.ar    1  UNL1        0.0584
     12 C         141.5340  143.5536  163.8408 C.ar    1  UNL1        0.0518
     13 C         144.2828  143.8793  162.6580 C.3     1  UNL1        0.2525
     14 O         143.2262  144.9161  162.4160 O.3     1  UNL1       -0.4714
     15 C         138.0641  138.9335  166.4030 C.3     1  UNL1        0.1123
     16 C         138.4393  137.6684  165.6897 C.3     1  UNL1        0.0939
     17 N         139.4086  137.7115  164.5458 N.3     1  UNL1       -0.2712
     18 C         138.9019  137.7646  163.1350 C.3     1  UNL1        0.0724
     19 C         139.8712  137.8077  161.9911 C.3     1  UNL1        0.0258
     20 C         141.3472  137.7977  162.2580 C.3     1  UNL1        0.0979
     21 C         141.8539  137.7446  163.6688 C.3     1  UNL1        0.0258
     22 C         140.8846  137.7015  164.8127 C.3     1  UNL1        0.0724
     23 C         142.3166  137.8409  161.1141 C.3     1  UNL1        0.3976
     24 F         143.2859  137.8840  159.9701 F       1  UNL1       -0.1701
     25 F         141.1796  138.0515  160.1586 F       1  UNL1       -0.1701
     26 F         143.4535  137.6302  162.0696 F       1  UNL1       -0.1701
@<TRIPOS>BOND
     1    13    14    1
     2    14     7    1
     3     7     8   ar
     4     8     9   ar
     5     9    10   ar
     6    10    11   ar
     7    11     1    1
     8     1     2    1
     9     2     3    1
    10     3     4    1
    11     4    15    1
    12    15    16    1
    13    16    17    1
    14    17    18    1
    15    18    19    1
    16    19    20    1
    17    20    23    1
    18    23    24    1
    19    23    25    1
    20    23    26    1
    21    20    21    1
    22    21    22    1
    23     4     5   am
    24     5     6    2
    25    11    12   ar
    26    12     7   ar
    27     5     1   am
    28    22    17    1
@<TRIPOS>MOLECULE
*****
 26 28 0 0 0
SMALL
GASTEIGER

@<TRIPOS>ATOM
      1 N         138.7681  141.9814  164.0933 N.am    1  UNL1       -0.2413
      2 C         138.3967  141.5655  162.7008 C.3     1  UNL1        0.1212
      3 C         138.4743  142.7766  161.8191 C.3     1  UNL1        0.1169
      4 N         138.8937  143.9409  162.6668 N.am    1  UNL1       -0.2606
      5 C         139.0752  143.4494  164.0723 C.2     1  UNL1        0.3111
      6 O         139.4909  144.2802  165.2500 O.2     1  UNL1       -0.2520
      7 C         139.7606  140.5457  167.6576 C.ar    1  UNL1        0.1400
      8 C         138.9321  139.2961  167.7006 C.ar    1  UNL1        0.0370
      9 C         138.0488  138.9415  166.5412 C.ar    1  UNL1        0.0044
     10 C         137.9942  139.8366  165.3388 C.ar    1  UNL1        0.0152
     11 C         138.8227  141.0862  165.2958 C.ar    1  UNL1        0.0584
     12 C         139.7060  141.4408  166.4552 C.ar    1  UNL1        0.0518
     13 C         141.3943  139.8245  169.5446 C.3     1  UNL1        0.2525
     14 O         140.6439  140.9003  168.8170 O.3     1  UNL1       -0.4714
     15 C         139.0960  145.3494  162.1923 C.3     1  UNL1        0.1123
     16 C         140.4807  145.9188  162.1018 C.3     1  UNL1        0.0939
     17 N         141.6686  145.0531  162.4010 N.3     1  UNL1       -0.2712
     18 C         142.1361  144.0463  161.3922 C.3     1  UNL1        0.0724
     19 C         143.3239  143.1807  161.6914 C.3     1  UNL1        0.0258
     20 C         144.0444  143.3218  162.9994 C.3     1  UNL1        0.0979
     21 C         143.5769  144.3286  164.0083 C.3     1  UNL1        0.0258
     22 C         142.3890  145.1943  163.7091 C.3     1  UNL1        0.0724
     23 C         145.2323  142.4561  163.2986 C.3     1  UNL1        0.3976
     24 F         146.4202  141.5904  163.5979 F       1  UNL1       -0.1701
     25 F         145.3426  142.1049  161.8445 F       1  UNL1       -0.1701
     26 F         145.1220  142.8074  164.7528 F       1  UNL1       -0.1701
@<TRIPOS>BOND
     1    13    14    1
     2    14     7    1
     3     7     8   ar
     4     8     9   ar
     5     9    10   ar
     6    10    11   ar
     7    11     1    1
     8     1     2    1
     9     2     3    1
    10     3     4    1
    11     4    15    1
    12    15    16    1
    13    16    17    1
    14    17    18    1
    15    18    19    1
    16    19    20    1
    17    20    23    1
    18    23    24    1
    19    23    25    1
    20    23    26    1
    21    20    21    1
    22    21    22    1
    23     4     5   am
    24     5     6    2
    25    11    12   ar
    26    12     7   ar
    27     5     1   am
    28    22    17    1
@<TRIPOS>MOLECULE
*****
 26 28 0 0 0
SMALL
GASTEIGER

@<TRIPOS>ATOM
      1 N         138.9682  141.9641  164.4988 N.am    1  UNL1       -0.2413
      2 C         138.8858  142.9848  165.5949 C.3     1  UNL1        0.1212
      3 C         138.9404  144.3456  164.9662 C.3     1  UNL1        0.1169
      4 N         139.0565  144.1658  163.4815 N.am    1  UNL1       -0.2606
      5 C         139.0737  142.6940  163.1927 C.2     1  UNL1        0.3111
      6 O         139.1781  142.0629  161.8359 O.2     1  UNL1       -0.2520
      7 C         139.6332  138.1025  163.8693 C.ar    1  UNL1        0.1400
      8 C         138.9095  137.4965  165.0350 C.ar    1  UNL1        0.0370
      9 C         138.2052  138.3797  166.0220 C.ar    1  UNL1        0.0044
     10 C         138.2248  139.8689  165.8433 C.ar    1  UNL1        0.0152
     11 C         138.9486  140.4748  164.6776 C.ar    1  UNL1        0.0584
     12 C         139.6528  139.5917  163.6906 C.ar    1  UNL1        0.0518
     13 C         141.3967  137.7906  161.9871 C.3     1  UNL1        0.2525
     14 O         140.3375  137.2193  162.8824 O.3     1  UNL1       -0.4714
     15 C         139.1406  145.2650  162.4642 C.3     1  UNL1        0.1123
     16 C         140.4662  145.6347  161.8674 C.3     1  UNL1        0.0939
     17 N         141.6890  144.8328  162.2016 N.3     1  UNL1       -0.2712
     18 C         142.4031  145.0604  163.5009 C.3     1  UNL1        0.0724
     19 C         143.6259  144.2586  163.8352 C.3     1  UNL1        0.0258
     20 C         144.1346  143.2292  162.8701 C.3     1  UNL1        0.0979
     21 C         143.4205  143.0016  161.5708 C.3     1  UNL1        0.0258
     22 C         142.1977  143.8034  161.2365 C.3     1  UNL1        0.0724
     23 C         145.3575  142.4273  163.2043 C.3     1  UNL1        0.3976
     24 F         146.5803  141.6255  163.5386 F       1  UNL1       -0.1701
     25 F         145.2244  142.8247  164.6446 F       1  UNL1       -0.1701
     26 F         145.4906  142.0299  161.7641 F       1  UNL1       -0.1701
@<TRIPOS>BOND
     1    13    14    1
     2    14     7    1
     3     7     8   ar
     4     8     9   ar
     5     9    10   ar
     6    10    11   ar
     7    11     1    1
     8     1     2    1
     9     2     3    1
    10     3     4    1
    11     4    15    1
    12    15    16    1
    13    16    17    1
    14    17    18    1
    15    18    19    1
    16    19    20    1
    17    20    23    1
    18    23    24    1
    19    23    25    1
    20    23    26    1
    21    20    21    1
    22    21    22    1
    23     4     5   am
    24     5     6    2
    25    11    12   ar
    26    12     7   ar
    27     5     1   am
    28    22    17    1
