@<TRIPOS>MOLECULE
*****
 33 36 0 0 0
SMALL
GASTEIGER

@<TRIPOS>ATOM
      1 C         141.2783  143.1049  163.7981 C.ar    1  UNL1        0.1215
      2 C         142.0045  142.4620  162.6540 C.ar    1  UNL1        0.0305
      3 C         141.9572  143.0854  161.2904 C.ar    1  UNL1        0.1226
      4 C         141.1837  144.3517  161.0711 C.ar    1  UNL1        0.0230
      5 C         140.4574  144.9946  162.2153 C.ar    1  UNL1        0.0385
      6 C         140.5047  144.3713  163.5788 C.ar    1  UNL1        0.1458
      7 C         139.4032  139.9097  167.6320 C.2     1  UNL1        0.1168
      8 N         139.9582  139.6486  169.0008 N.2     1  UNL1       -0.1821
      9 N         141.2047  140.4676  169.1595 N.pl3   1  UNL1       -0.2142
     10 C         142.0819  140.5117  170.3755 C.3     1  UNL1        0.1351
     11 C         141.4201  141.2350  167.8887 C.3     1  UNL1        0.2629
     12 C         142.4863  142.2031  167.4693 C.2     1  UNL1        0.3796
     13 O         143.5997  142.5480  168.4134 O.2     1  UNL1       -0.2405
     14 N         142.4390  142.8264  166.1058 N.am    1  UNL1        0.0343
     15 C         141.3255  142.4816  165.1617 C.2     1  UNL1        0.3717
     16 N         140.2594  141.5134  165.5811 N.2     1  UNL1       -0.0369
     17 C         140.3067  140.8901  166.9446 C.2     1  UNL1        0.2165
     18 C         138.1624  139.2978  167.0521 C.3     1  UNL1        0.0510
     19 C         139.1848  137.9777  165.0615 C.3     1  UNL1        0.0004
     20 C         138.2559  138.0416  166.2375 C.3     1  UNL1        0.0065
     21 S         142.6835  142.4424  160.1462 S.O2    1  UNL1        0.0634
     22 O         143.8739  143.3157  160.4111 O.2     1  UNL1       -0.1528
     23 O         141.4931  141.5691  159.8814 O.2     1  UNL1       -0.1528
     24 N         143.4097  141.7995  159.0021 N.3     1  UNL1       -0.1527
     25 C         144.5973  142.4810  158.3897 C.3     1  UNL1        0.1131
     26 C         145.3236  141.8380  157.2454 C.3     1  UNL1        0.0915
     27 N         144.8622  140.5135  156.7137 N.3     1  UNL1       -0.2690
     28 C         145.5884  139.8705  155.5695 C.3     1  UNL1        0.0897
     29 C         143.6745  139.8319  157.3261 C.3     1  UNL1        0.0915
     30 C         142.9483  140.4749  158.4703 C.3     1  UNL1        0.1131
     31 O         139.7785  145.0142  164.7231 O.3     1  UNL1       -0.4752
     32 C         138.3366  144.6865  164.9752 C.3     1  UNL1        0.2055
     33 C         137.6873  143.5486  164.2449 C.3     1  UNL1        0.0512
@<TRIPOS>BOND
     1    19    20    1
     2    20    18    1
     3    18     7    1
     4     7     8    2
     5     8     9    1
     6     9    10    1
     7     9    11    1
     8    11    12    1
     9    12    13    2
    10    12    14    1
    11    14    15    2
    12    15     1    1
    13     1     2   ar
    14     2     3   ar
    15     3    21    1
    16    21    22    2
    17    21    23    2
    18    21    24    1
    19    24    25    1
    20    25    26    1
    21    26    27    1
    22    27    28    1
    23    27    29    1
    24    29    30    1
    25     3     4   ar
    26     4     5   ar
    27     5     6   ar
    28     6    31    1
    29    31    32    1
    30    32    33    1
    31    15    16    1
    32    16    17    2
    33    17     7    1
    34    17    11    1
    35     6     1   ar
    36    30    24    1
@<TRIPOS>MOLECULE
*****
 33 36 0 0 0
SMALL
GASTEIGER

@<TRIPOS>ATOM
      1 C         142.4054  141.5095  163.2665 C.ar    1  UNL1        0.1215
      2 C         141.9257  142.2440  162.0498 C.ar    1  UNL1        0.0305
      3 C         142.9143  142.8957  161.1288 C.ar    1  UNL1        0.1226
      4 C         144.3825  142.8127  161.4245 C.ar    1  UNL1        0.0230
      5 C         144.8622  142.0781  162.6413 C.ar    1  UNL1        0.0385
      6 C         143.8736  141.4265  163.5622 C.ar    1  UNL1        0.1458
      7 C         140.1396  140.7366  168.0302 C.2     1  UNL1        0.1168
      8 N         139.0174  139.8146  168.4052 N.2     1  UNL1       -0.1821
      9 N         138.5849  139.0841  167.1686 N.pl3   1  UNL1       -0.2142
     10 C         137.4898  138.0624  167.0857 C.3     1  UNL1        0.1351
     11 C         139.4398  139.5545  166.0293 C.3     1  UNL1        0.2629
     12 C         139.4675  139.1848  164.5759 C.2     1  UNL1        0.3796
     13 O         138.5066  138.1634  164.0434 O.2     1  UNL1       -0.2405
     14 N         140.4560  139.8364  163.6550 N.am    1  UNL1        0.0343
     15 C         141.4168  140.8578  164.1875 C.2     1  UNL1        0.3717
     16 N         141.3892  141.2275  165.6409 N.2     1  UNL1       -0.0369
     17 C         140.4007  140.5758  166.5619 C.2     1  UNL1        0.2165
     18 C         140.8722  141.6577  168.9602 C.3     1  UNL1        0.0510
     19 C         140.4145  144.0196  169.9412 C.3     1  UNL1        0.0004
     20 C         140.1050  142.5528  169.8878 C.3     1  UNL1        0.0065
     21 S         142.4346  143.6303  159.9122 S.O2    1  UNL1        0.0634
     22 O         142.1501  144.8387  160.7540 O.2     1  UNL1       -0.1528
     23 O         142.7190  142.4218  159.0704 O.2     1  UNL1       -0.1528
     24 N         141.9549  144.3648  158.6956 N.3     1  UNL1       -0.1527
     25 C         140.7795  145.2916  158.7938 C.3     1  UNL1        0.1131
     26 C         140.2998  146.0262  157.5771 C.3     1  UNL1        0.0915
     27 N         140.9955  145.8340  156.2622 N.3     1  UNL1       -0.2690
     28 C         140.5158  146.5686  155.0456 C.3     1  UNL1        0.0897
     29 C         142.1709  144.9073  156.1639 C.3     1  UNL1        0.0915
     30 C         142.6506  144.1727  157.3806 C.3     1  UNL1        0.1131
     31 O         144.3533  140.6919  164.7789 O.3     1  UNL1       -0.4752
     32 C         144.3638  139.1920  164.7938 C.3     1  UNL1        0.2055
     33 C         143.6738  138.4480  165.8984 C.3     1  UNL1        0.0512
@<TRIPOS>BOND
     1    19    20    1
     2    20    18    1
     3    18     7    1
     4     7     8    2
     5     8     9    1
     6     9    10    1
     7     9    11    1
     8    11    12    1
     9    12    13    2
    10    12    14    1
    11    14    15    2
    12    15     1    1
    13     1     2   ar
    14     2     3   ar
    15     3    21    1
    16    21    22    2
    17    21    23    2
    18    21    24    1
    19    24    25    1
    20    25    26    1
    21    26    27    1
    22    27    28    1
    23    27    29    1
    24    29    30    1
    25     3     4   ar
    26     4     5   ar
    27     5     6   ar
    28     6    31    1
    29    31    32    1
    30    32    33    1
    31    15    16    1
    32    16    17    2
    33    17     7    1
    34    17    11    1
    35     6     1   ar
    36    30    24    1
@<TRIPOS>MOLECULE
*****
 33 36 0 0 0
SMALL
GASTEIGER

@<TRIPOS>ATOM
      1 C         142.6116  141.8966  163.3912 C.ar    1  UNL1        0.1215
      2 C         141.8367  142.5234  162.2703 C.ar    1  UNL1        0.0305
      3 C         142.5076  142.8000  160.9574 C.ar    1  UNL1        0.1226
      4 C         143.9534  142.4498  160.7656 C.ar    1  UNL1        0.0230
      5 C         144.7284  141.8229  161.8866 C.ar    1  UNL1        0.0385
      6 C         144.0575  141.5464  163.1993 C.ar    1  UNL1        0.1458
      7 C         139.1180  139.3337  166.4976 C.2     1  UNL1        0.1168
      8 N         138.8508  139.5073  167.9633 N.2     1  UNL1       -0.1821
      9 N         139.7662  140.5786  168.4775 N.pl3   1  UNL1       -0.2142
     10 C         139.8364  141.0744  169.8915 C.3     1  UNL1        0.1351
     11 C         140.5991  141.0670  167.3296 C.3     1  UNL1        0.2629
     12 C         141.6705  142.1130  167.2406 C.2     1  UNL1        0.3796
     13 O         142.0711  142.8824  168.4643 O.2     1  UNL1       -0.2405
     14 N         142.3414  142.3895  165.9278 N.am    1  UNL1        0.0343
     15 C         141.9408  141.6201  164.7040 C.2     1  UNL1        0.3717
     16 N         140.8693  140.5741  164.7931 N.2     1  UNL1       -0.0369
     17 C         140.1985  140.2976  166.1059 C.2     1  UNL1        0.2165
     18 C         138.4262  138.3659  165.5838 C.3     1  UNL1        0.0510
     19 C         138.8700  137.6444  163.1276 C.3     1  UNL1        0.0004
     20 C         139.2211  137.5787  164.5845 C.3     1  UNL1        0.0065
     21 S         141.7326  143.4268  159.8365 S.O2    1  UNL1        0.0634
     22 O         141.4416  142.0659  159.2767 O.2     1  UNL1       -0.1528
     23 O         142.0235  144.7876  160.3963 O.2     1  UNL1       -0.1528
     24 N         140.9576  144.0536  158.7156 N.3     1  UNL1       -0.1527
     25 C         139.9974  143.2264  157.9133 C.3     1  UNL1        0.1131
     26 C         139.2224  143.8532  156.7923 C.3     1  UNL1        0.0915
     27 N         139.4076  145.3072  156.4737 N.3     1  UNL1       -0.2690
     28 C         138.6327  145.9340  155.3528 C.3     1  UNL1        0.0897
     29 C         140.3679  146.1344  157.2760 C.3     1  UNL1        0.0915
     30 C         141.1428  145.5076  158.3969 C.3     1  UNL1        0.1131
     31 O         144.8325  140.9196  164.3204 O.3     1  UNL1       -0.4752
     32 C         144.8654  139.4271  164.4666 C.3     1  UNL1        0.2055
     33 C         144.0260  138.7575  165.5140 C.3     1  UNL1        0.0512
@<TRIPOS>BOND
     1    19    20    1
     2    20    18    1
     3    18     7    1
     4     7     8    2
     5     8     9    1
     6     9    10    1
     7     9    11    1
     8    11    12    1
     9    12    13    2
    10    12    14    1
    11    14    15    2
    12    15     1    1
    13     1     2   ar
    14     2     3   ar
    15     3    21    1
    16    21    22    2
    17    21    23    2
    18    21    24    1
    19    24    25    1
    20    25    26    1
    21    26    27    1
    22    27    28    1
    23    27    29    1
    24    29    30    1
    25     3     4   ar
    26     4     5   ar
    27     5     6   ar
    28     6    31    1
    29    31    32    1
    30    32    33    1
    31    15    16    1
    32    16    17    2
    33    17     7    1
    34    17    11    1
    35     6     1   ar
    36    30    24    1
@<TRIPOS>MOLECULE
*****
 33 36 0 0 0
SMALL
GASTEIGER

@<TRIPOS>ATOM
      1 C         140.0706  144.5794  158.3921 C.ar    1  UNL1        0.1215
      2 C         139.9868  145.9439  157.7750 C.ar    1  UNL1        0.0305
      3 C         139.3754  146.1163  156.4161 C.ar    1  UNL1        0.1226
      4 C         138.8477  144.9241  155.6744 C.ar    1  UNL1        0.0230
      5 C         138.9315  143.5595  156.2916 C.ar    1  UNL1        0.0385
      6 C         139.5429  143.3871  157.6504 C.ar    1  UNL1        0.1458
      7 C         139.8391  144.3342  163.7128 C.2     1  UNL1        0.1168
      8 N         140.9460  144.1006  164.6977 N.2     1  UNL1       -0.1821
      9 N         142.2228  143.9325  163.9287 N.pl3   1  UNL1       -0.2142
     10 C         143.5793  143.6791  164.5166 C.3     1  UNL1        0.1351
     11 C         141.9050  144.0622  162.4685 C.3     1  UNL1        0.2629
     12 C         142.7668  143.9862  161.2431 C.2     1  UNL1        0.3796
     13 O         144.2401  143.7379  161.3766 O.2     1  UNL1       -0.2405
     14 N         142.1553  144.1586  159.8844 N.am    1  UNL1        0.0343
     15 C         140.6821  144.4070  159.7509 C.2     1  UNL1        0.3717
     16 N         139.8203  144.4829  160.9763 N.2     1  UNL1       -0.0369
     17 C         140.4318  144.3105  162.3350 C.2     1  UNL1        0.2165
     18 C         138.3932  144.5532  164.0469 C.3     1  UNL1        0.0510
     19 C         137.8641  142.0095  164.0529 C.3     1  UNL1        0.0004
     20 C         137.4100  143.4304  163.8953 C.3     1  UNL1        0.0065
     21 S         139.2916  147.4809  155.7990 S.O2    1  UNL1        0.0634
     22 O         139.7629  146.9183  154.4909 O.2     1  UNL1       -0.1528
     23 O         138.8203  148.0436  157.1071 O.2     1  UNL1       -0.1528
     24 N         139.2078  148.8455  155.1819 N.3     1  UNL1       -0.1527
     25 C         139.7994  149.0930  153.8259 C.3     1  UNL1        0.1131
     26 C         139.7156  150.4577  153.2088 C.3     1  UNL1        0.0915
     27 N         139.0403  151.5748  153.9477 N.3     1  UNL1       -0.2690
     28 C         138.9565  152.9393  153.3306 C.3     1  UNL1        0.0897
     29 C         138.4487  151.3272  155.3037 C.3     1  UNL1        0.0915
     30 C         138.5325  149.9627  155.9208 C.3     1  UNL1        0.1131
     31 O         139.6267  142.0225  158.2675 O.3     1  UNL1       -0.4752
     32 C         138.4815  141.4953  159.0802 C.3     1  UNL1        0.2055
     33 C         138.7016  141.0781  160.5041 C.3     1  UNL1        0.0512
@<TRIPOS>BOND
     1    19    20    1
     2    20    18    1
     3    18     7    1
     4     7     8    2
     5     8     9    1
     6     9    10    1
     7     9    11    1
     8    11    12    1
     9    12    13    2
    10    12    14    1
    11    14    15    2
    12    15     1    1
    13     1     2   ar
    14     2     3   ar
    15     3    21    1
    16    21    22    2
    17    21    23    2
    18    21    24    1
    19    24    25    1
    20    25    26    1
    21    26    27    1
    22    27    28    1
    23    27    29    1
    24    29    30    1
    25     3     4   ar
    26     4     5   ar
    27     5     6   ar
    28     6    31    1
    29    31    32    1
    30    32    33    1
    31    15    16    1
    32    16    17    2
    33    17     7    1
    34    17    11    1
    35     6     1   ar
    36    30    24    1
@<TRIPOS>MOLECULE
*****
 33 36 0 0 0
SMALL
GASTEIGER

@<TRIPOS>ATOM
      1 C         141.0806  143.7091  162.2041 C.ar    1  UNL1        0.1215
      2 C         141.1950  143.7112  160.7085 C.ar    1  UNL1        0.0305
      3 C         140.6777  144.8766  159.9183 C.ar    1  UNL1        0.1226
      4 C         140.0460  146.0399  160.6238 C.ar    1  UNL1        0.0230
      5 C         139.9316  146.0378  162.1195 C.ar    1  UNL1        0.0385
      6 C         140.4490  144.8724  162.9096 C.ar    1  UNL1        0.1458
      7 C         140.4770  139.1432  164.8895 C.2     1  UNL1        0.1168
      8 N         141.5166  138.2992  165.5655 N.2     1  UNL1       -0.1821
      9 N         142.8488  138.9604  165.3708 N.pl3   1  UNL1       -0.2142
     10 C         144.1660  138.4573  165.8825 C.3     1  UNL1        0.1351
     11 C         142.6326  140.2131  164.5744 C.3     1  UNL1        0.2629
     12 C         143.5811  141.2654  164.0818 C.2     1  UNL1        0.3796
     13 O         145.0470  141.1525  164.3792 O.2     1  UNL1       -0.2405
     14 N         143.0638  142.4308  163.2917 N.am    1  UNL1        0.0343
     15 C         141.5979  142.5437  162.9942 C.2     1  UNL1        0.3717
     16 N         140.6494  141.4914  163.4869 N.2     1  UNL1       -0.0369
     17 C         141.1667  140.3260  164.2770 C.2     1  UNL1        0.2165
     18 C         139.0059  138.8550  164.8355 C.3     1  UNL1        0.0510
     19 C         137.6563  138.5049  167.0278 C.3     1  UNL1        0.0004
     20 C         138.0969  139.3918  165.9012 C.3     1  UNL1        0.0065
     21 S         140.7920  144.8787  158.4227 S.O2    1  UNL1        0.0634
     22 O         142.0085  145.7512  158.5169 O.2     1  UNL1       -0.1528
     23 O         139.5755  144.0063  158.3285 O.2     1  UNL1       -0.1528
     24 N         140.9064  144.8808  156.9271 N.3     1  UNL1       -0.1527
     25 C         141.0948  143.5895  156.1875 C.3     1  UNL1        0.1131
     26 C         141.2092  143.5916  154.6918 C.3     1  UNL1        0.0915
     27 N         141.1351  144.8850  153.9358 N.3     1  UNL1       -0.2690
     28 C         141.2494  144.8871  152.4402 C.3     1  UNL1        0.0897
     29 C         140.9466  146.1763  154.6754 C.3     1  UNL1        0.0915
     30 C         140.8323  146.1743  156.1710 C.3     1  UNL1        0.1131
     31 O         140.3346  144.8703  164.4053 O.3     1  UNL1       -0.4752
     32 C         139.0067  144.6179  165.0556 C.3     1  UNL1        0.2055
     33 C         137.9535  143.8337  164.3305 C.3     1  UNL1        0.0512
@<TRIPOS>BOND
     1    19    20    1
     2    20    18    1
     3    18     7    1
     4     7     8    2
     5     8     9    1
     6     9    10    1
     7     9    11    1
     8    11    12    1
     9    12    13    2
    10    12    14    1
    11    14    15    2
    12    15     1    1
    13     1     2   ar
    14     2     3   ar
    15     3    21    1
    16    21    22    2
    17    21    23    2
    18    21    24    1
    19    24    25    1
    20    25    26    1
    21    26    27    1
    22    27    28    1
    23    27    29    1
    24    29    30    1
    25     3     4   ar
    26     4     5   ar
    27     5     6   ar
    28     6    31    1
    29    31    32    1
    30    32    33    1
    31    15    16    1
    32    16    17    2
    33    17     7    1
    34    17    11    1
    35     6     1   ar
    36    30    24    1
@<TRIPOS>MOLECULE
*****
 33 36 0 0 0
SMALL
GASTEIGER

@<TRIPOS>ATOM
      1 C         144.2789  141.6419  158.1628 C.ar    1  UNL1        0.1215
      2 C         145.5129  142.0921  157.4384 C.ar    1  UNL1        0.0305
      3 C         145.9729  141.3589  156.2133 C.ar    1  UNL1        0.1226
      4 C         145.1989  140.1755  155.7126 C.ar    1  UNL1        0.0230
      5 C         143.9649  139.7254  156.4370 C.ar    1  UNL1        0.0385
      6 C         143.5049  140.4586  157.6621 C.ar    1  UNL1        0.1458
      7 C         144.4431  142.7674  163.3715 C.2     1  UNL1        0.1168
      8 N         143.6129  143.7400  164.1554 N.2     1  UNL1       -0.1821
      9 N         142.6584  144.4039  163.2076 N.pl3   1  UNL1       -0.2142
     10 C         141.6420  145.4470  163.5665 C.3     1  UNL1        0.1351
     11 C         142.8988  143.8415  161.8380 C.3     1  UNL1        0.2629
     12 C         142.2558  144.1198  160.5117 C.2     1  UNL1        0.3796
     13 O         141.1527  145.1313  160.4104 O.2     1  UNL1       -0.2405
     14 N         142.7158  143.3866  159.2867 N.am    1  UNL1        0.0343
     15 C         143.8189  142.3752  159.3879 C.2     1  UNL1        0.3717
     16 N         144.4619  142.0969  160.7142 N.2     1  UNL1       -0.0369
     17 C         144.0018  142.8301  161.9392 C.2     1  UNL1        0.2165
     18 C         145.5249  141.8866  163.9229 C.3     1  UNL1        0.0510
     19 C         144.1675  139.8115  164.6987 C.3     1  UNL1        0.0004
     20 C         145.3341  140.3992  163.9615 C.3     1  UNL1        0.0065
     21 S         147.2068  141.8090  155.4890 S.O2    1  UNL1        0.0634
     22 O         147.6984  142.4746  156.7401 O.2     1  UNL1       -0.1528
     23 O         146.7153  141.1433  154.2379 O.2     1  UNL1       -0.1528
     24 N         148.4408  142.2591  154.7647 N.3     1  UNL1       -0.1527
     25 C         148.3346  143.2601  153.6526 C.3     1  UNL1        0.1131
     26 C         149.5686  143.7102  152.9282 C.3     1  UNL1        0.0915
     27 N         150.9088  143.1593  153.3160 N.3     1  UNL1       -0.2690
     28 C         152.1427  143.6094  152.5916 C.3     1  UNL1        0.0897
     29 C         151.0150  142.1583  154.4280 C.3     1  UNL1        0.0915
     30 C         149.7811  141.7082  155.1524 C.3     1  UNL1        0.1131
     31 O         142.2709  140.0085  158.3865 O.3     1  UNL1       -0.4752
     32 C         142.3166  138.7902  159.2604 C.3     1  UNL1        0.2055
     33 C         143.4301  138.6190  160.2508 C.3     1  UNL1        0.0512
@<TRIPOS>BOND
     1    19    20    1
     2    20    18    1
     3    18     7    1
     4     7     8    2
     5     8     9    1
     6     9    10    1
     7     9    11    1
     8    11    12    1
     9    12    13    2
    10    12    14    1
    11    14    15    2
    12    15     1    1
    13     1     2   ar
    14     2     3   ar
    15     3    21    1
    16    21    22    2
    17    21    23    2
    18    21    24    1
    19    24    25    1
    20    25    26    1
    21    26    27    1
    22    27    28    1
    23    27    29    1
    24    29    30    1
    25     3     4   ar
    26     4     5   ar
    27     5     6   ar
    28     6    31    1
    29    31    32    1
    30    32    33    1
    31    15    16    1
    32    16    17    2
    33    17     7    1
    34    17    11    1
    35     6     1   ar
    36    30    24    1
@<TRIPOS>MOLECULE
*****
 33 36 0 0 0
SMALL
GASTEIGER

@<TRIPOS>ATOM
      1 C         139.6639  141.1440  162.3628 C.ar    1  UNL1        0.1215
      2 C         140.2414  140.1789  161.3703 C.ar    1  UNL1        0.0305
      3 C         139.7140  140.1411  159.9666 C.ar    1  UNL1        0.1226
      4 C         138.6090  141.0683  159.5554 C.ar    1  UNL1        0.0230
      5 C         138.0314  142.0334  160.5479 C.ar    1  UNL1        0.0385
      6 C         138.5588  142.0712  161.9516 C.ar    1  UNL1        0.1458
      7 C         143.2492  142.5271  166.0582 C.2     1  UNL1        0.1168
      8 N         143.2473  142.2424  167.5309 N.2     1  UNL1       -0.1821
      9 N         142.0092  141.4577  167.8496 N.pl3   1  UNL1       -0.2142
     10 C         141.6053  140.9605  169.2060 C.3     1  UNL1        0.1351
     11 C         141.2461  141.2575  166.5739 C.3     1  UNL1        0.2629
     12 C         139.9523  140.5587  166.2774 C.2     1  UNL1        0.3796
     13 O         139.1860  139.8978  167.3846 O.2     1  UNL1       -0.2405
     14 N         139.4250  140.5209  164.8737 N.am    1  UNL1        0.0343
     15 C         140.1913  141.1818  163.7665 C.2     1  UNL1        0.3717
     16 N         141.4850  141.8806  164.0631 N.2     1  UNL1       -0.0369
     17 C         142.0124  141.9184  165.4667 C.2     1  UNL1        0.2165
     18 C         144.3029  143.2872  165.3085 C.3     1  UNL1        0.0510
     19 C         145.7109  141.6565  163.8564 C.3     1  UNL1        0.0004
     20 C         144.7567  142.8091  163.9610 C.3     1  UNL1        0.0065
     21 S         140.2916  139.1760  158.9741 S.O2    1  UNL1        0.0634
     22 O         138.9838  139.1482  158.2401 O.2     1  UNL1       -0.1528
     23 O         141.5994  139.2039  159.7082 O.2     1  UNL1       -0.1528
     24 N         140.8692  138.2110  157.9817 N.3     1  UNL1       -0.1527
     25 C         142.3093  137.8035  158.0824 C.3     1  UNL1        0.1131
     26 C         142.8868  136.8384  157.0899 C.3     1  UNL1        0.0915
     27 N         142.0243  136.2808  155.9967 N.3     1  UNL1       -0.2690
     28 C         142.6019  135.3157  155.0043 C.3     1  UNL1        0.0897
     29 C         140.5842  136.6882  155.8960 C.3     1  UNL1        0.0915
     30 C         140.0067  137.6533  156.8884 C.3     1  UNL1        0.1131
     31 O         137.9812  143.0364  162.9441 O.3     1  UNL1       -0.4752
     32 C         138.3543  144.4879  162.8832 C.3     1  UNL1        0.2055
     33 C         139.6993  144.8953  162.3587 C.3     1  UNL1        0.0512
@<TRIPOS>BOND
     1    19    20    1
     2    20    18    1
     3    18     7    1
     4     7     8    2
     5     8     9    1
     6     9    10    1
     7     9    11    1
     8    11    12    1
     9    12    13    2
    10    12    14    1
    11    14    15    2
    12    15     1    1
    13     1     2   ar
    14     2     3   ar
    15     3    21    1
    16    21    22    2
    17    21    23    2
    18    21    24    1
    19    24    25    1
    20    25    26    1
    21    26    27    1
    22    27    28    1
    23    27    29    1
    24    29    30    1
    25     3     4   ar
    26     4     5   ar
    27     5     6   ar
    28     6    31    1
    29    31    32    1
    30    32    33    1
    31    15    16    1
    32    16    17    2
    33    17     7    1
    34    17    11    1
    35     6     1   ar
    36    30    24    1
@<TRIPOS>MOLECULE
*****
 33 36 0 0 0
SMALL
GASTEIGER

@<TRIPOS>ATOM
      1 C         141.7702  140.3799  160.5795 C.ar    1  UNL1        0.1215
      2 C         142.7821  140.9423  159.6257 C.ar    1  UNL1        0.0305
      3 C         143.3489  140.0786  158.5382 C.ar    1  UNL1        0.1226
      4 C         142.9039  138.6524  158.4044 C.ar    1  UNL1        0.0230
      5 C         141.8919  138.0899  159.3583 C.ar    1  UNL1        0.0385
      6 C         141.3251  138.9537  160.4457 C.ar    1  UNL1        0.1458
      7 C         141.4239  142.0472  165.6316 C.2     1  UNL1        0.1168
      8 N         140.5395  143.1067  166.2192 N.2     1  UNL1       -0.1821
      9 N         139.7025  143.6776  165.1131 N.pl3   1  UNL1       -0.2142
     10 C         138.6782  144.7644  165.2536 C.3     1  UNL1        0.1351
     11 C         140.0696  142.9710  163.8419 C.3     1  UNL1        0.2629
     12 C         139.5725  143.1150  162.4341 C.2     1  UNL1        0.3796
     13 O         138.5086  144.1227  162.1136 O.2     1  UNL1       -0.2405
     14 N         140.1394  142.2513  161.3466 N.am    1  UNL1        0.0343
     15 C         141.2033  141.2436  161.6670 C.2     1  UNL1        0.3717
     16 N         141.7004  141.0996  163.0749 N.2     1  UNL1       -0.0369
     17 C         141.1335  141.9634  164.1624 C.2     1  UNL1        0.2165
     18 C         142.4233  141.2173  166.3815 C.3     1  UNL1        0.0510
     19 C         143.0015  138.6956  166.1418 C.3     1  UNL1        0.0004
     20 C         142.1234  139.7805  166.6913 C.3     1  UNL1        0.0065
     21 S         144.3608  140.6410  157.5844 S.O2    1  UNL1        0.0634
     22 O         144.4312  141.8978  158.4002 O.2     1  UNL1       -0.1528
     23 O         144.2905  139.3843  156.7687 O.2     1  UNL1       -0.1528
     24 N         145.3727  141.2035  156.6307 N.3     1  UNL1       -0.1527
     25 C         145.4477  140.6853  155.2251 C.3     1  UNL1        0.1131
     26 C         146.4597  141.2478  154.2713 C.3     1  UNL1        0.0915
     27 N         147.3966  142.3285  154.7232 N.3     1  UNL1       -0.2690
     28 C         148.4085  142.8910  153.7694 C.3     1  UNL1        0.0897
     29 C         147.3216  142.8467  156.1288 C.3     1  UNL1        0.0915
     30 C         146.3097  142.2843  157.0826 C.3     1  UNL1        0.1131
     31 O         140.3132  138.3912  161.3996 O.3     1  UNL1       -0.4752
     32 C         140.7653  137.6167  162.6019 C.3     1  UNL1        0.2055
     33 C         140.0320  137.7560  163.9030 C.3     1  UNL1        0.0512
@<TRIPOS>BOND
     1    19    20    1
     2    20    18    1
     3    18     7    1
     4     7     8    2
     5     8     9    1
     6     9    10    1
     7     9    11    1
     8    11    12    1
     9    12    13    2
    10    12    14    1
    11    14    15    2
    12    15     1    1
    13     1     2   ar
    14     2     3   ar
    15     3    21    1
    16    21    22    2
    17    21    23    2
    18    21    24    1
    19    24    25    1
    20    25    26    1
    21    26    27    1
    22    27    28    1
    23    27    29    1
    24    29    30    1
    25     3     4   ar
    26     4     5   ar
    27     5     6   ar
    28     6    31    1
    29    31    32    1
    30    32    33    1
    31    15    16    1
    32    16    17    2
    33    17     7    1
    34    17    11    1
    35     6     1   ar
    36    30    24    1
@<TRIPOS>MOLECULE
*****
 33 36 0 0 0
SMALL
GASTEIGER

@<TRIPOS>ATOM
      1 C         139.6366  140.7347  162.9814 C.ar    1  UNL1        0.1215
      2 C         139.7808  141.7844  161.9197 C.ar    1  UNL1        0.0305
      3 C         139.2117  141.5508  160.5516 C.ar    1  UNL1        0.1226
      4 C         138.4984  140.2673  160.2453 C.ar    1  UNL1        0.0230
      5 C         138.3543  139.2174  161.3070 C.ar    1  UNL1        0.0385
      6 C         138.9233  139.4512  162.6750 C.ar    1  UNL1        0.1458
      7 C         143.3524  142.5719  166.3341 C.2     1  UNL1        0.1168
      8 N         143.3889  142.5082  167.8323 N.2     1  UNL1       -0.1821
      9 N         142.1475  141.8059  168.2967 N.pl3   1  UNL1       -0.2142
     10 C         141.7751  141.5235  169.7220 C.3     1  UNL1        0.1351
     11 C         141.3437  141.4356  167.0855 C.3     1  UNL1        0.2629
     12 C         140.0300  140.7286  166.9305 C.2     1  UNL1        0.3796
     13 O         139.2853  140.2552  168.1434 O.2     1  UNL1       -0.2405
     14 N         139.4610  140.4949  165.5624 N.am    1  UNL1        0.0343
     15 C         140.2057  140.9683  164.3495 C.2     1  UNL1        0.3717
     16 N         141.5194  141.6754  164.5045 N.2     1  UNL1       -0.0369
     17 C         142.0885  141.9091  165.8726 C.2     1  UNL1        0.2165
     18 C         144.3966  143.1900  165.4523 C.3     1  UNL1        0.0510
     19 C         143.5618  144.4206  163.3218 C.3     1  UNL1        0.0004
     20 C         144.1011  144.4658  164.7208 C.3     1  UNL1        0.0065
     21 S         139.3559  142.6005  159.4900 S.O2    1  UNL1        0.0634
     22 O         138.8500  143.6384  160.4476 O.2     1  UNL1       -0.1528
     23 O         139.8618  141.5627  158.5325 O.2     1  UNL1       -0.1528
     24 N         139.5001  143.6503  158.4284 N.3     1  UNL1       -0.1527
     25 C         138.9178  143.4230  157.0648 C.3     1  UNL1        0.1131
     26 C         139.0620  144.4729  156.0032 C.3     1  UNL1        0.0915
     27 N         139.7885  145.7500  156.3051 N.3     1  UNL1       -0.2690
     28 C         139.9327  146.7998  155.2435 C.3     1  UNL1        0.0897
     29 C         140.3708  145.9773  157.6686 C.3     1  UNL1        0.0915
     30 C         140.2266  144.9275  158.7303 C.3     1  UNL1        0.1131
     31 O         138.7792  138.4013  163.7367 O.3     1  UNL1       -0.4752
     32 C         139.7469  137.2568  163.7960 C.3     1  UNL1        0.2055
     33 C         140.9657  137.3494  164.6653 C.3     1  UNL1        0.0512
@<TRIPOS>BOND
     1    19    20    1
     2    20    18    1
     3    18     7    1
     4     7     8    2
     5     8     9    1
     6     9    10    1
     7     9    11    1
     8    11    12    1
     9    12    13    2
    10    12    14    1
    11    14    15    2
    12    15     1    1
    13     1     2   ar
    14     2     3   ar
    15     3    21    1
    16    21    22    2
    17    21    23    2
    18    21    24    1
    19    24    25    1
    20    25    26    1
    21    26    27    1
    22    27    28    1
    23    27    29    1
    24    29    30    1
    25     3     4   ar
    26     4     5   ar
    27     5     6   ar
    28     6    31    1
    29    31    32    1
    30    32    33    1
    31    15    16    1
    32    16    17    2
    33    17     7    1
    34    17    11    1
    35     6     1   ar
    36    30    24    1
