@<TRIPOS>MOLECULE
*****
 38 43 0 0 0
SMALL
GASTEIGER

@<TRIPOS>ATOM
      1 C         142.8193  138.0802  159.4822 C.ar    1  UNL1        0.1233
      2 C         142.2362  137.8780  160.8494 C.ar    1  UNL1        0.1180
      3 N         142.7746  138.9528  161.7466 N.ar    1  UNL1       -0.2233
      4 N         143.6904  139.8193  160.9339 N.ar    1  UNL1       -0.0634
      5 N         143.7180  139.2800  159.5344 N.ar    1  UNL1       -0.1287
      6 C         142.4535  139.1299  163.2011 C.3     1  UNL1        0.1834
      7 C         143.5427  138.7482  164.1592 C.3     1  UNL1        0.0386
      8 C         143.5330  138.8076  165.6579 C.3     1  UNL1        0.0301
      9 C         142.4318  139.2635  166.5688 C.ar    1  UNL1       -0.0084
     10 C         142.8355  139.1624  168.0099 C.ar    1  UNL1       -0.0030
     11 C         141.8757  139.5704  169.0880 C.ar    1  UNL1       -0.0002
     12 C         140.5122  140.0795  168.7250 C.ar    1  UNL1        0.0013
     13 C         140.1086  140.1806  167.2839 C.ar    1  UNL1        0.0146
     14 C         141.0684  139.7726  166.2058 C.ar    1  UNL1        0.0502
     15 N         140.4693  139.9514  164.8423 N.am    1  UNL1       -0.2531
     16 C         141.0857  139.6655  163.5050 C.2     1  UNL1        0.2520
     17 O         140.2199  139.9530  162.3144 O.2     1  UNL1       -0.2724
     18 C         139.0685  140.4872  164.8121 C.3     1  UNL1        0.1248
     19 C         138.8249  141.9323  164.4919 C.ar    1  UNL1       -0.0020
     20 C         139.5252  143.0024  165.2758 C.ar    1  UNL1       -0.0026
     21 C         139.2816  144.4475  164.9557 C.ar    1  UNL1       -0.0003
     22 C         138.3377  144.8224  163.8518 C.ar    1  UNL1       -0.0000
     23 C         137.6375  143.7522  163.0680 C.ar    1  UNL1       -0.0003
     24 C         137.8810  142.3071  163.3880 C.ar    1  UNL1       -0.0026
     25 C         143.0504  135.1119  156.8582 C.ar    1  UNL1        0.1547
     26 C         143.3190  135.9604  158.0656 C.ar    1  UNL1        0.0400
     27 C         142.5507  137.2317  158.2748 C.ar    1  UNL1        0.0241
     28 C         141.5139  137.6543  157.2766 C.ar    1  UNL1        0.0033
     29 C         141.2454  136.8057  156.0693 C.ar    1  UNL1        0.0207
     30 C         142.0136  135.5346  155.8600 C.ar    1  UNL1        0.0994
     31 N         141.7450  134.6860  154.6526 N.ar    1  UNL1       -0.2839
     32 C         141.9332  135.1012  153.2235 C.ar    1  UNL1        0.1826
     33 N         141.5456  133.9451  152.3501 N.ar    1  UNL1       -0.2280
     34 C         141.1178  132.8154  153.2391 C.ar    1  UNL1        0.0786
     35 C         140.6491  131.4648  152.7850 C.3     1  UNL1        0.0538
     36 C         141.2411  133.2732  154.6622 C.ar    1  UNL1        0.0963
     37 C         144.4740  133.1600  157.8139 C.3     1  UNL1        0.2525
     38 O         143.8187  133.8407  156.6490 O.3     1  UNL1       -0.4700
@<TRIPOS>BOND
     1    37    38    1
     2    38    25    1
     3    25    26   ar
     4    26    27   ar
     5    27     1    1
     6     1     2   ar
     7     2     3   ar
     8     3     6    1
     9     6     7    1
    10     7     8    1
    11     8     9    1
    12     9    10   ar
    13    10    11   ar
    14    11    12   ar
    15    12    13   ar
    16    13    14   ar
    17    14    15    1
    18    15    18    1
    19    18    19    1
    20    19    20   ar
    21    20    21   ar
    22    21    22   ar
    23    22    23   ar
    24    23    24   ar
    25    15    16   am
    26    16    17    2
    27     3     4   ar
    28     4     5   ar
    29    27    28   ar
    30    28    29   ar
    31    29    30   ar
    32    30    31    1
    33    31    32   ar
    34    32    33   ar
    35    33    34   ar
    36    34    35    1
    37    34    36   ar
    38    30    25   ar
    39    36    31   ar
    40     5     1   ar
    41    16     6    1
    42    14     9   ar
    43    24    19   ar
@<TRIPOS>MOLECULE
*****
 38 43 0 0 0
SMALL
GASTEIGER

@<TRIPOS>ATOM
      1 C         143.4516  139.6321  160.2894 C.ar    1  UNL1        0.1233
      2 C         143.2217  140.2173  161.6513 C.ar    1  UNL1        0.1180
      3 N         142.7206  139.1236  162.5472 N.ar    1  UNL1       -0.2233
      4 N         142.6408  137.8624  161.7390 N.ar    1  UNL1       -0.0634
      5 N         143.0926  138.1767  160.3436 N.ar    1  UNL1       -0.1287
      6 C         142.3622  139.2660  163.9968 C.3     1  UNL1        0.1834
      7 C         143.4081  138.8154  164.9731 C.3     1  UNL1        0.0386
      8 C         143.3553  138.8278  166.4721 C.3     1  UNL1        0.0301
      9 C         142.2437  139.2937  167.3651 C.ar    1  UNL1       -0.0084
     10 C         142.6000  139.1327  168.8132 C.ar    1  UNL1       -0.0030
     11 C         141.6230  139.5404  169.8758 C.ar    1  UNL1       -0.0002
     12 C         140.2896  140.1091  169.4902 C.ar    1  UNL1        0.0013
     13 C         139.9333  140.2701  168.0421 C.ar    1  UNL1        0.0146
     14 C         140.9103  139.8624  166.9795 C.ar    1  UNL1        0.0502
     15 N         140.3592  140.1056  165.6058 N.am    1  UNL1       -0.2531
     16 C         141.0053  139.8402  164.2783 C.2     1  UNL1        0.2520
     17 O         140.1863  140.1960  163.0731 O.2     1  UNL1       -0.2724
     18 C         138.9795  140.6917  165.5525 C.3     1  UNL1        0.1248
     19 C         138.7686  142.0629  164.9819 C.ar    1  UNL1       -0.0020
     20 C         139.5996  143.2132  165.4678 C.ar    1  UNL1       -0.0026
     21 C         139.3887  144.5844  164.8973 C.ar    1  UNL1       -0.0003
     22 C         138.3469  144.8052  163.8409 C.ar    1  UNL1       -0.0000
     23 C         137.5159  143.6547  163.3551 C.ar    1  UNL1       -0.0003
     24 C         137.7267  142.2836  163.9256 C.ar    1  UNL1       -0.0026
     25 C         144.4192  140.4592  156.5305 C.ar    1  UNL1        0.1547
     26 C         143.9183  139.7189  157.7350 C.ar    1  UNL1        0.0400
     27 C         143.9526  140.3723  159.0848 C.ar    1  UNL1        0.0241
     28 C         144.4879  141.7660  159.2300 C.ar    1  UNL1        0.0033
     29 C         144.9889  142.5063  158.0254 C.ar    1  UNL1        0.0207
     30 C         144.9545  141.8529  156.6757 C.ar    1  UNL1        0.0994
     31 N         145.4555  142.5932  155.4711 N.ar    1  UNL1       -0.2839
     32 C         144.6064  143.2597  154.4296 C.ar    1  UNL1        0.1826
     33 N         145.5197  143.8754  153.4114 N.ar    1  UNL1       -0.2280
     34 C         146.9333  143.5895  153.8236 C.ar    1  UNL1        0.0786
     35 C         148.1695  144.0203  153.0914 C.3     1  UNL1        0.0538
     36 C         146.8937  142.7970  155.0966 C.ar    1  UNL1        0.0963
     37 C         144.8497  138.3886  155.0215 C.3     1  UNL1        0.2525
     38 O         144.3849  139.8058  155.1807 O.3     1  UNL1       -0.4700
@<TRIPOS>BOND
     1    37    38    1
     2    38    25    1
     3    25    26   ar
     4    26    27   ar
     5    27     1    1
     6     1     2   ar
     7     2     3   ar
     8     3     6    1
     9     6     7    1
    10     7     8    1
    11     8     9    1
    12     9    10   ar
    13    10    11   ar
    14    11    12   ar
    15    12    13   ar
    16    13    14   ar
    17    14    15    1
    18    15    18    1
    19    18    19    1
    20    19    20   ar
    21    20    21   ar
    22    21    22   ar
    23    22    23   ar
    24    23    24   ar
    25    15    16   am
    26    16    17    2
    27     3     4   ar
    28     4     5   ar
    29    27    28   ar
    30    28    29   ar
    31    29    30   ar
    32    30    31    1
    33    31    32   ar
    34    32    33   ar
    35    33    34   ar
    36    34    35    1
    37    34    36   ar
    38    30    25   ar
    39    36    31   ar
    40     5     1   ar
    41    16     6    1
    42    14     9   ar
    43    24    19   ar
@<TRIPOS>MOLECULE
*****
 38 43 0 0 0
SMALL
GASTEIGER

@<TRIPOS>ATOM
      1 C         142.9247  137.3570  157.6956 C.ar    1  UNL1        0.1233
      2 C         142.7666  137.6343  159.1613 C.ar    1  UNL1        0.1180
      3 N         143.1014  139.0771  159.3989 N.ar    1  UNL1       -0.2233
      4 N         143.4665  139.6914  158.0800 N.ar    1  UNL1       -0.0634
      5 N         143.3573  138.6284  157.0274 N.ar    1  UNL1       -0.1287
      6 C         143.0758  139.7817  160.7228 C.3     1  UNL1        0.1834
      7 C         144.4108  140.2021  161.2623 C.3     1  UNL1        0.0386
      8 C         144.7181  140.9174  162.5444 C.3     1  UNL1        0.0301
      9 C         143.7665  141.3890  163.6037 C.ar    1  UNL1       -0.0084
     10 C         144.4913  142.0629  164.7309 C.ar    1  UNL1       -0.0030
     11 C         143.7221  142.6094  165.8968 C.ar    1  UNL1       -0.0002
     12 C         142.2280  142.4821  165.9356 C.ar    1  UNL1        0.0013
     13 C         141.5032  141.8083  164.8084 C.ar    1  UNL1        0.0146
     14 C         142.2725  141.2617  163.6425 C.ar    1  UNL1        0.0502
     15 N         141.3610  140.6314  162.6315 N.am    1  UNL1       -0.2531
     16 C         141.7184  139.9727  161.3321 C.2     1  UNL1        0.2520
     17 O         140.5664  139.4339  160.5370 O.2     1  UNL1       -0.2724
     18 C         139.8987  140.6641  162.9639 C.3     1  UNL1        0.1248
     19 C         139.3420  139.7243  163.9921 C.ar    1  UNL1       -0.0020
     20 C         139.5947  138.2504  163.8758 C.ar    1  UNL1       -0.0026
     21 C         139.0380  137.3106  164.9039 C.ar    1  UNL1       -0.0003
     22 C         138.2287  137.8448  166.0483 C.ar    1  UNL1       -0.0000
     23 C         137.9760  139.3189  166.1646 C.ar    1  UNL1       -0.0003
     24 C         138.5327  140.2587  165.1365 C.ar    1  UNL1       -0.0026
     25 C         143.1251  133.4831  156.8576 C.ar    1  UNL1        0.1547
     26 C         143.3586  134.8004  157.5358 C.ar    1  UNL1        0.0400
     27 C         142.6912  136.0397  157.0174 C.ar    1  UNL1        0.0241
     28 C         141.7903  135.9616  155.8206 C.ar    1  UNL1        0.0033
     29 C         141.5568  134.6442  155.1424 C.ar    1  UNL1        0.0207
     30 C         142.2242  133.4051  155.6608 C.ar    1  UNL1        0.0994
     31 N         141.9907  132.0877  154.9825 N.ar    1  UNL1       -0.2839
     32 C         143.0118  131.2938  154.2229 C.ar    1  UNL1        0.1826
     33 N         142.3472  130.0485  153.7157 N.ar    1  UNL1       -0.2280
     34 C         140.9154  130.0726  154.1617 C.ar    1  UNL1        0.0786
     35 C         139.8847  129.0210  153.8752 C.3     1  UNL1        0.0538
     36 C         140.6950  131.3329  154.9447 C.ar    1  UNL1        0.0963
     37 C         145.1899  132.3149  157.9167 C.3     1  UNL1        0.2525
     38 O         143.7926  132.2439  157.3760 O.3     1  UNL1       -0.4700
@<TRIPOS>BOND
     1    37    38    1
     2    38    25    1
     3    25    26   ar
     4    26    27   ar
     5    27     1    1
     6     1     2   ar
     7     2     3   ar
     8     3     6    1
     9     6     7    1
    10     7     8    1
    11     8     9    1
    12     9    10   ar
    13    10    11   ar
    14    11    12   ar
    15    12    13   ar
    16    13    14   ar
    17    14    15    1
    18    15    18    1
    19    18    19    1
    20    19    20   ar
    21    20    21   ar
    22    21    22   ar
    23    22    23   ar
    24    23    24   ar
    25    15    16   am
    26    16    17    2
    27     3     4   ar
    28     4     5   ar
    29    27    28   ar
    30    28    29   ar
    31    29    30   ar
    32    30    31    1
    33    31    32   ar
    34    32    33   ar
    35    33    34   ar
    36    34    35    1
    37    34    36   ar
    38    30    25   ar
    39    36    31   ar
    40     5     1   ar
    41    16     6    1
    42    14     9   ar
    43    24    19   ar
@<TRIPOS>MOLECULE
*****
 38 43 0 0 0
SMALL
GASTEIGER

@<TRIPOS>ATOM
      1 C         142.4191  138.4044  158.1958 C.ar    1  UNL1        0.1233
      2 C         141.4485  138.9971  159.1738 C.ar    1  UNL1        0.1180
      3 N         142.1274  140.1425  159.8645 N.ar    1  UNL1       -0.2233
      4 N         143.5177  140.2577  159.3134 N.ar    1  UNL1       -0.0634
      5 N         143.6980  139.1835  158.2821 N.ar    1  UNL1       -0.1287
      6 C         141.5223  141.0189  160.9209 C.3     1  UNL1        0.1834
      7 C         140.9417  142.3147  160.4374 C.3     1  UNL1        0.0386
      8 C         140.2733  143.3952  161.2347 C.3     1  UNL1        0.0301
      9 C         140.0202  143.4468  162.7123 C.ar    1  UNL1       -0.0084
     10 C         139.3197  144.7138  163.1045 C.ar    1  UNL1       -0.0030
     11 C         138.9722  144.9646  164.5419 C.ar    1  UNL1       -0.0002
     12 C         139.3251  143.9483  165.5872 C.ar    1  UNL1        0.0013
     13 C         140.0256  142.6813  165.1951 C.ar    1  UNL1        0.0146
     14 C         140.3732  142.4305  163.7576 C.ar    1  UNL1        0.0502
     15 N         141.0664  141.1117  163.5834 N.am    1  UNL1       -0.2531
     16 C         141.5778  140.4834  162.3210 C.2     1  UNL1        0.2520
     17 O         142.2310  139.1425  162.4796 O.2     1  UNL1       -0.2724
     18 C         141.2758  140.3159  164.8375 C.3     1  UNL1        0.1248
     19 C         140.1640  139.4696  165.3834 C.ar    1  UNL1       -0.0020
     20 C         139.8057  138.1775  164.7110 C.ar    1  UNL1       -0.0026
     21 C         138.6940  137.3312  165.2568 C.ar    1  UNL1       -0.0003
     22 C         137.9406  137.7770  166.4748 C.ar    1  UNL1       -0.0000
     23 C         138.2990  139.0692  167.1471 C.ar    1  UNL1       -0.0003
     24 C         139.4107  139.9155  166.6014 C.ar    1  UNL1       -0.0026
     25 C         142.8513  134.9157  156.3542 C.ar    1  UNL1        0.1547
     26 C         143.1136  136.0825  157.2595 C.ar    1  UNL1        0.0400
     27 C         142.1569  137.2375  157.2905 C.ar    1  UNL1        0.0241
     28 C         140.9381  137.2255  156.4163 C.ar    1  UNL1        0.0033
     29 C         140.6759  136.0586  155.5110 C.ar    1  UNL1        0.0207
     30 C         141.6325  134.9037  155.4800 C.ar    1  UNL1        0.0994
     31 N         141.3702  133.7368  154.5746 N.ar    1  UNL1       -0.2839
     32 C         141.3978  133.7606  153.0751 C.ar    1  UNL1        0.1826
     33 N         141.0790  132.3797  152.5837 N.ar    1  UNL1       -0.2280
     34 C         140.8544  131.5025  153.7794 C.ar    1  UNL1        0.0786
     35 C         140.5102  130.0428  153.7500 C.3     1  UNL1        0.0538
     36 C         141.0344  132.3412  155.0100 C.ar    1  UNL1        0.0963
     37 C         144.3041  133.1630  157.6063 C.3     1  UNL1        0.2525
     38 O         143.8080  133.7607  156.3231 O.3     1  UNL1       -0.4700
@<TRIPOS>BOND
     1    37    38    1
     2    38    25    1
     3    25    26   ar
     4    26    27   ar
     5    27     1    1
     6     1     2   ar
     7     2     3   ar
     8     3     6    1
     9     6     7    1
    10     7     8    1
    11     8     9    1
    12     9    10   ar
    13    10    11   ar
    14    11    12   ar
    15    12    13   ar
    16    13    14   ar
    17    14    15    1
    18    15    18    1
    19    18    19    1
    20    19    20   ar
    21    20    21   ar
    22    21    22   ar
    23    22    23   ar
    24    23    24   ar
    25    15    16   am
    26    16    17    2
    27     3     4   ar
    28     4     5   ar
    29    27    28   ar
    30    28    29   ar
    31    29    30   ar
    32    30    31    1
    33    31    32   ar
    34    32    33   ar
    35    33    34   ar
    36    34    35    1
    37    34    36   ar
    38    30    25   ar
    39    36    31   ar
    40     5     1   ar
    41    16     6    1
    42    14     9   ar
    43    24    19   ar
@<TRIPOS>MOLECULE
*****
 38 43 0 0 0
SMALL
GASTEIGER

@<TRIPOS>ATOM
      1 C         142.2458  138.3710  158.0796 C.ar    1  UNL1        0.1233
      2 C         141.2440  138.8814  159.0726 C.ar    1  UNL1        0.1180
      3 N         141.8138  140.1109  159.7158 N.ar    1  UNL1       -0.2233
      4 N         143.1678  140.3603  159.1203 N.ar    1  UNL1       -0.0634
      5 N         143.4348  139.2851  158.1092 N.ar    1  UNL1       -0.1287
      6 C         141.1468  140.9445  160.7694 C.3     1  UNL1        0.1834
      7 C         139.7322  141.3506  160.4791 C.3     1  UNL1        0.0386
      8 C         138.8041  142.1743  161.3217 C.3     1  UNL1        0.0301
      9 C         139.0611  142.7954  162.6627 C.ar    1  UNL1       -0.0084
     10 C         137.8590  143.5419  163.1603 C.ar    1  UNL1       -0.0030
     11 C         137.9057  144.2392  164.4875 C.ar    1  UNL1       -0.0002
     12 C         139.1545  144.1900  165.3171 C.ar    1  UNL1        0.0013
     13 C         140.3565  143.4434  164.8195 C.ar    1  UNL1        0.0146
     14 C         140.3098  142.7461  163.4923 C.ar    1  UNL1        0.0502
     15 N         141.6099  142.0636  163.1857 N.am    1  UNL1       -0.2531
     16 C         141.9825  141.2618  161.9739 C.2     1  UNL1        0.2520
     17 O         143.3746  140.7036  161.9656 O.2     1  UNL1       -0.2724
     18 C         142.6789  142.2011  164.2289 C.3     1  UNL1        0.1248
     19 C         142.7007  141.2733  165.4074 C.ar    1  UNL1       -0.0020
     20 C         142.7284  139.7890  165.1928 C.ar    1  UNL1       -0.0026
     21 C         142.7501  138.8611  166.3712 C.ar    1  UNL1       -0.0003
     22 C         142.7442  139.4176  167.7642 C.ar    1  UNL1       -0.0000
     23 C         142.7165  140.9020  167.9787 C.ar    1  UNL1       -0.0003
     24 C         142.6948  141.8299  166.8003 C.ar    1  UNL1       -0.0026
     25 C         142.9786  134.8778  156.3448 C.ar    1  UNL1        0.1547
     26 C         143.1379  136.0894  157.2145 C.ar    1  UNL1        0.0400
     27 C         142.0866  137.1593  157.2099 C.ar    1  UNL1        0.0241
     28 C         140.8761  137.0176  156.3356 C.ar    1  UNL1        0.0033
     29 C         140.7169  135.8059  155.4658 C.ar    1  UNL1        0.0207
     30 C         141.7681  134.7360  155.4705 C.ar    1  UNL1        0.0994
     31 N         141.6088  133.5243  154.6007 N.ar    1  UNL1       -0.2839
     32 C         141.9578  133.4319  153.1447 C.ar    1  UNL1        0.1826
     33 N         141.6373  132.0428  152.6785 N.ar    1  UNL1       -0.2280
     34 C         141.0901  131.2766  153.8461 C.ar    1  UNL1        0.0786
     35 C         140.6397  129.8459  153.8289 C.3     1  UNL1        0.0538
     36 C         141.0726  132.1922  155.0341 C.ar    1  UNL1        0.0963
     37 C         144.0331  132.7641  157.4267 C.3     1  UNL1        0.2525
     38 O         144.0299  133.8078  156.3494 O.3     1  UNL1       -0.4700
@<TRIPOS>BOND
     1    37    38    1
     2    38    25    1
     3    25    26   ar
     4    26    27   ar
     5    27     1    1
     6     1     2   ar
     7     2     3   ar
     8     3     6    1
     9     6     7    1
    10     7     8    1
    11     8     9    1
    12     9    10   ar
    13    10    11   ar
    14    11    12   ar
    15    12    13   ar
    16    13    14   ar
    17    14    15    1
    18    15    18    1
    19    18    19    1
    20    19    20   ar
    21    20    21   ar
    22    21    22   ar
    23    22    23   ar
    24    23    24   ar
    25    15    16   am
    26    16    17    2
    27     3     4   ar
    28     4     5   ar
    29    27    28   ar
    30    28    29   ar
    31    29    30   ar
    32    30    31    1
    33    31    32   ar
    34    32    33   ar
    35    33    34   ar
    36    34    35    1
    37    34    36   ar
    38    30    25   ar
    39    36    31   ar
    40     5     1   ar
    41    16     6    1
    42    14     9   ar
    43    24    19   ar
@<TRIPOS>MOLECULE
*****
 38 43 0 0 0
SMALL
GASTEIGER

@<TRIPOS>ATOM
      1 C         142.4370  138.4611  160.2679 C.ar    1  UNL1        0.1233
      2 C         141.6716  138.7014  161.5354 C.ar    1  UNL1        0.1180
      3 N         142.6576  138.7932  162.6620 N.ar    1  UNL1       -0.2233
      4 N         144.0324  138.6097  162.0908 N.ar    1  UNL1       -0.0634
      5 N         143.8961  138.4044  160.6112 N.ar    1  UNL1       -0.1287
      6 C         142.3270  139.0275  164.1063 C.3     1  UNL1        0.1834
      7 C         143.3784  138.6090  165.0908 C.3     1  UNL1        0.0386
      8 C         143.3511  138.7090  166.5872 C.3     1  UNL1        0.0301
      9 C         142.2657  139.2520  167.4687 C.ar    1  UNL1       -0.0084
     10 C         142.6424  139.1662  168.9181 C.ar    1  UNL1       -0.0030
     11 C         141.6930  139.6577  169.9701 C.ar    1  UNL1       -0.0002
     12 C         140.3667  140.2350  169.5728 C.ar    1  UNL1        0.0013
     13 C         139.9900  140.3208  168.1235 C.ar    1  UNL1        0.0146
     14 C         140.9394  139.8293  167.0714 C.ar    1  UNL1        0.0502
     15 N         140.3711  140.0060  165.6945 N.am    1  UNL1       -0.2531
     16 C         140.9885  139.6492  164.3749 C.2     1  UNL1        0.2520
     17 O         140.1579  139.9545  163.1639 O.2     1  UNL1       -0.2724
     18 C         139.0045  140.6210  165.6286 C.3     1  UNL1        0.1248
     19 C         138.8278  141.9966  165.0572 C.ar    1  UNL1       -0.0020
     20 C         139.6799  143.1285  165.5500 C.ar    1  UNL1       -0.0026
     21 C         139.5032  144.5041  164.9787 C.ar    1  UNL1       -0.0003
     22 C         138.4745  144.7479  163.9147 C.ar    1  UNL1       -0.0000
     23 C         137.6224  143.6160  163.4218 C.ar    1  UNL1       -0.0003
     24 C         137.7990  142.2403  163.9931 C.ar    1  UNL1       -0.0026
     25 C         139.9247  138.7611  157.2105 C.ar    1  UNL1        0.1547
     26 C         140.5148  138.9173  158.5806 C.ar    1  UNL1        0.0400
     27 C         141.8468  138.3049  158.8978 C.ar    1  UNL1        0.0241
     28 C         142.5887  137.5362  157.8449 C.ar    1  UNL1        0.0033
     29 C         141.9986  137.3800  156.4747 C.ar    1  UNL1        0.0207
     30 C         140.6666  137.9924  156.1575 C.ar    1  UNL1        0.0994
     31 N         140.0765  137.8361  154.7873 N.ar    1  UNL1       -0.2839
     32 C         140.6273  138.4167  153.5186 C.ar    1  UNL1        0.1826
     33 N         139.7232  138.0112  152.3925 N.ar    1  UNL1       -0.2280
     34 C         138.6136  137.1801  152.9652 C.ar    1  UNL1        0.0786
     35 C         137.4840  136.5652  152.1933 C.3     1  UNL1        0.0538
     36 C         138.8319  137.0719  154.4452 C.ar    1  UNL1        0.0963
     37 C         138.5236  140.7256  156.2474 C.3     1  UNL1        0.2525
     38 O         138.5927  139.3735  156.8932 O.3     1  UNL1       -0.4700
@<TRIPOS>BOND
     1    37    38    1
     2    38    25    1
     3    25    26   ar
     4    26    27   ar
     5    27     1    1
     6     1     2   ar
     7     2     3   ar
     8     3     6    1
     9     6     7    1
    10     7     8    1
    11     8     9    1
    12     9    10   ar
    13    10    11   ar
    14    11    12   ar
    15    12    13   ar
    16    13    14   ar
    17    14    15    1
    18    15    18    1
    19    18    19    1
    20    19    20   ar
    21    20    21   ar
    22    21    22   ar
    23    22    23   ar
    24    23    24   ar
    25    15    16   am
    26    16    17    2
    27     3     4   ar
    28     4     5   ar
    29    27    28   ar
    30    28    29   ar
    31    29    30   ar
    32    30    31    1
    33    31    32   ar
    34    32    33   ar
    35    33    34   ar
    36    34    35    1
    37    34    36   ar
    38    30    25   ar
    39    36    31   ar
    40     5     1   ar
    41    16     6    1
    42    14     9   ar
    43    24    19   ar
@<TRIPOS>MOLECULE
*****
 38 43 0 0 0
SMALL
GASTEIGER

@<TRIPOS>ATOM
      1 C         143.3486  137.1283  156.3295 C.ar    1  UNL1        0.1233
      2 C         142.6914  137.8706  157.4553 C.ar    1  UNL1        0.1180
      3 N         143.3184  139.2305  157.5423 N.ar    1  UNL1       -0.2233
      4 N         144.3630  139.3287  156.4704 N.ar    1  UNL1       -0.0634
      5 N         144.3817  138.0295  155.7209 N.ar    1  UNL1       -0.1287
      6 C         142.9631  140.3037  158.5282 C.3     1  UNL1        0.1834
      7 C         141.9960  141.3414  158.0403 C.3     1  UNL1        0.0386
      8 C         141.4489  142.5289  158.7754 C.3     1  UNL1        0.0301
      9 C         141.7336  142.9722  160.1798 C.ar    1  UNL1       -0.0084
     10 C         140.9748  144.2191  160.5254 C.ar    1  UNL1       -0.0030
     11 C         141.1182  144.8310  161.8874 C.ar    1  UNL1       -0.0002
     12 C         142.0204  144.1961  162.9037 C.ar    1  UNL1        0.0013
     13 C         142.7792  142.9492  162.5581 C.ar    1  UNL1        0.0146
     14 C         142.6358  142.3373  161.1961 C.ar    1  UNL1        0.0502
     15 N         143.4761  141.1023  161.0589 N.am    1  UNL1       -0.2531
     16 C         143.6218  140.1973  159.8717 C.2     1  UNL1        0.2520
     17 O         144.5487  139.0318  160.0515 O.2     1  UNL1       -0.2724
     18 C         144.2767  140.7222  162.2692 C.3     1  UNL1        0.1248
     19 C         143.6794  139.8243  163.3119 C.ar    1  UNL1       -0.0020
     20 C         142.4732  138.9946  162.9854 C.ar    1  UNL1       -0.0026
     21 C         141.8759  138.0968  164.0280 C.ar    1  UNL1       -0.0003
     22 C         142.4848  138.0287  165.3972 C.ar    1  UNL1       -0.0000
     23 C         143.6910  138.8585  165.7237 C.ar    1  UNL1       -0.0003
     24 C         144.2883  139.7564  164.6810 C.ar    1  UNL1       -0.0026
     25 C         142.9895  133.1762  156.3633 C.ar    1  UNL1        0.1547
     26 C         143.3094  134.5741  156.8031 C.ar    1  UNL1        0.0400
     27 C         143.0287  135.7304  155.8898 C.ar    1  UNL1        0.0241
     28 C         142.4283  135.4888  154.5366 C.ar    1  UNL1        0.0033
     29 C         142.1084  134.0908  154.0968 C.ar    1  UNL1        0.0207
     30 C         142.3890  132.9346  155.0101 C.ar    1  UNL1        0.0994
     31 N         142.0692  131.5366  154.5703 N.ar    1  UNL1       -0.2839
     32 C         142.9781  130.6247  153.8006 C.ar    1  UNL1        0.1826
     33 N         142.2549  129.3297  153.5776 N.ar    1  UNL1       -0.2280
     34 C         140.8990  129.4411  154.2093 C.ar    1  UNL1        0.0786
     35 C         139.8432  128.3757  154.2248 C.3     1  UNL1        0.0538
     36 C         140.7842  130.8051  154.8228 C.ar    1  UNL1        0.0963
     37 C         144.6542  131.4476  157.3586 C.3     1  UNL1        0.2525
     38 O         143.2701  132.0199  157.2766 O.3     1  UNL1       -0.4700
@<TRIPOS>BOND
     1    37    38    1
     2    38    25    1
     3    25    26   ar
     4    26    27   ar
     5    27     1    1
     6     1     2   ar
     7     2     3   ar
     8     3     6    1
     9     6     7    1
    10     7     8    1
    11     8     9    1
    12     9    10   ar
    13    10    11   ar
    14    11    12   ar
    15    12    13   ar
    16    13    14   ar
    17    14    15    1
    18    15    18    1
    19    18    19    1
    20    19    20   ar
    21    20    21   ar
    22    21    22   ar
    23    22    23   ar
    24    23    24   ar
    25    15    16   am
    26    16    17    2
    27     3     4   ar
    28     4     5   ar
    29    27    28   ar
    30    28    29   ar
    31    29    30   ar
    32    30    31    1
    33    31    32   ar
    34    32    33   ar
    35    33    34   ar
    36    34    35    1
    37    34    36   ar
    38    30    25   ar
    39    36    31   ar
    40     5     1   ar
    41    16     6    1
    42    14     9   ar
    43    24    19   ar
@<TRIPOS>MOLECULE
*****
 38 43 0 0 0
SMALL
GASTEIGER

@<TRIPOS>ATOM
      1 C         142.3533  138.9565  160.8683 C.ar    1  UNL1        0.1233
      2 C         141.3622  138.4226  159.8769 C.ar    1  UNL1        0.1180
      3 N         142.0126  138.4227  158.5253 N.ar    1  UNL1       -0.2233
      4 N         143.4057  138.9566  158.6813 N.ar    1  UNL1       -0.0634
      5 N         143.6162  139.2865  160.1293 N.ar    1  UNL1       -0.1287
      6 C         141.3809  137.9685  157.2428 C.3     1  UNL1        0.1834
      7 C         140.0637  138.6024  156.9060 C.3     1  UNL1        0.0386
      8 C         139.1903  138.3648  155.7099 C.3     1  UNL1        0.0301
      9 C         139.4182  137.4348  154.5552 C.ar    1  UNL1       -0.0084
     10 C         138.2922  137.5026  153.5665 C.ar    1  UNL1       -0.0030
     11 C         138.3240  136.6482  152.3340 C.ar    1  UNL1       -0.0002
     12 C         139.4817  135.7261  152.0903 C.ar    1  UNL1        0.0013
     13 C         140.6076  135.6583  153.0790 C.ar    1  UNL1        0.0146
     14 C         140.5758  136.5126  154.3115 C.ar    1  UNL1        0.0502
     15 N         141.7916  136.2928  155.1623 N.am    1  UNL1       -0.2531
     16 C         142.1499  136.9407  156.4668 C.2     1  UNL1        0.2520
     17 O         143.4488  136.5029  157.0758 O.2     1  UNL1       -0.2724
     18 C         142.7796  135.2927  154.6393 C.3     1  UNL1        0.1248
     19 C         142.8016  133.8992  155.1940 C.ar    1  UNL1       -0.0020
     20 C         143.9823  133.4273  155.9898 C.ar    1  UNL1       -0.0026
     21 C         144.0042  132.0339  156.5446 C.ar    1  UNL1       -0.0003
     22 C         142.8455  131.1123  156.3036 C.ar    1  UNL1       -0.0000
     23 C         141.6648  131.5842  155.5078 C.ar    1  UNL1       -0.0003
     24 C         141.6428  132.9777  154.9530 C.ar    1  UNL1       -0.0026
     25 C         142.0235  140.6602  164.4373 C.ar    1  UNL1        0.1547
     26 C         142.2548  140.4869  162.9655 C.ar    1  UNL1        0.0400
     27 C         142.1220  139.1299  162.3402 C.ar    1  UNL1        0.0241
     28 C         141.7579  137.9464  163.1867 C.ar    1  UNL1        0.0033
     29 C         141.5267  138.1198  164.6585 C.ar    1  UNL1        0.0207
     30 C         141.6594  139.4766  165.2839 C.ar    1  UNL1        0.0994
     31 N         141.4281  139.6500  166.7558 N.ar    1  UNL1       -0.2839
     32 C         142.4504  139.4615  167.8372 C.ar    1  UNL1        0.1826
     33 N         141.7879  139.7373  169.1544 N.ar    1  UNL1       -0.2280
     34 C         140.3563  140.0962  168.8872 C.ar    1  UNL1        0.0786
     35 C         139.3276  140.4475  169.9208 C.3     1  UNL1        0.0538
     36 C         140.1339  140.0423  167.4047 C.ar    1  UNL1        0.0963
     37 C         143.4613  142.4385  165.6704 C.3     1  UNL1        0.2525
     38 O         142.1562  142.0172  165.0627 O.3     1  UNL1       -0.4700
@<TRIPOS>BOND
     1    37    38    1
     2    38    25    1
     3    25    26   ar
     4    26    27   ar
     5    27     1    1
     6     1     2   ar
     7     2     3   ar
     8     3     6    1
     9     6     7    1
    10     7     8    1
    11     8     9    1
    12     9    10   ar
    13    10    11   ar
    14    11    12   ar
    15    12    13   ar
    16    13    14   ar
    17    14    15    1
    18    15    18    1
    19    18    19    1
    20    19    20   ar
    21    20    21   ar
    22    21    22   ar
    23    22    23   ar
    24    23    24   ar
    25    15    16   am
    26    16    17    2
    27     3     4   ar
    28     4     5   ar
    29    27    28   ar
    30    28    29   ar
    31    29    30   ar
    32    30    31    1
    33    31    32   ar
    34    32    33   ar
    35    33    34   ar
    36    34    35    1
    37    34    36   ar
    38    30    25   ar
    39    36    31   ar
    40     5     1   ar
    41    16     6    1
    42    14     9   ar
    43    24    19   ar
@<TRIPOS>MOLECULE
*****
 38 43 0 0 0
SMALL
GASTEIGER

@<TRIPOS>ATOM
      1 C         141.7653  143.4791  161.9831 C.ar    1  UNL1        0.1233
      2 C         140.6593  143.0864  161.0489 C.ar    1  UNL1        0.1180
      3 N         140.8387  143.8508  159.7708 N.ar    1  UNL1       -0.2233
      4 N         142.0555  144.7160  159.9151 N.ar    1  UNL1       -0.0634
      5 N         142.6282  144.4863  161.2823 N.ar    1  UNL1       -0.1287
      6 C         139.9562  143.7651  158.5609 C.3     1  UNL1        0.1834
      7 C         138.8634  142.7395  158.6238 C.3     1  UNL1        0.0386
      8 C         137.8278  142.4119  157.5893 C.3     1  UNL1        0.0301
      9 C         137.6290  143.0289  156.2366 C.ar    1  UNL1       -0.0084
     10 C         136.4708  142.4061  155.5150 C.ar    1  UNL1       -0.0030
     11 C         136.1005  142.8804  154.1410 C.ar    1  UNL1       -0.0002
     12 C         136.8884  143.9775  153.4887 C.ar    1  UNL1        0.0013
     13 C         138.0466  144.6003  154.2103 C.ar    1  UNL1        0.0146
     14 C         138.4169  144.1260  155.5842 C.ar    1  UNL1        0.0502
     15 N         139.5981  144.8770  156.1235 N.am    1  UNL1       -0.2531
     16 C         140.2832  144.7164  157.4482 C.2     1  UNL1        0.2520
     17 O         141.4494  145.6276  157.6925 O.2     1  UNL1       -0.2724
     18 C         140.1699  145.9275  155.2182 C.3     1  UNL1        0.1248
     19 C         139.6828  147.3433  155.3106 C.ar    1  UNL1       -0.0020
     20 C         139.9826  148.3130  154.2063 C.ar    1  UNL1       -0.0026
     21 C         139.4956  149.7288  154.2986 C.ar    1  UNL1       -0.0003
     22 C         138.7087  150.1747  155.4953 C.ar    1  UNL1       -0.0000
     23 C         138.4089  149.2048  156.5997 C.ar    1  UNL1       -0.0003
     24 C         138.8959  147.7891  156.5073 C.ar    1  UNL1       -0.0026
     25 C         141.0292  141.8345  165.5190 C.ar    1  UNL1        0.1547
     26 C         140.8224  142.3571  164.1284 C.ar    1  UNL1        0.0400
     27 C         141.9720  142.9564  163.3738 C.ar    1  UNL1        0.0241
     28 C         143.3282  143.0331  164.0099 C.ar    1  UNL1        0.0033
     29 C         143.5350  142.5104  165.4006 C.ar    1  UNL1        0.0207
     30 C         142.3855  141.9111  166.1551 C.ar    1  UNL1        0.0994
     31 N         142.5923  141.3884  167.5459 N.ar    1  UNL1       -0.2839
     32 C         143.0219  142.1942  168.7359 C.ar    1  UNL1        0.1826
     33 N         143.1009  141.2720  169.9161 N.ar    1  UNL1       -0.2280
     34 C         142.7200  139.8962  169.4557 C.ar    1  UNL1        0.0786
     35 C         142.6635  138.6646  170.3101 C.3     1  UNL1        0.0538
     36 C         142.4057  139.9681  167.9908 C.ar    1  UNL1        0.0963
     37 C         138.7645  140.5614  165.5304 C.3     1  UNL1        0.2525
     38 O         139.8797  141.2351  166.2736 O.3     1  UNL1       -0.4700
@<TRIPOS>BOND
     1    37    38    1
     2    38    25    1
     3    25    26   ar
     4    26    27   ar
     5    27     1    1
     6     1     2   ar
     7     2     3   ar
     8     3     6    1
     9     6     7    1
    10     7     8    1
    11     8     9    1
    12     9    10   ar
    13    10    11   ar
    14    11    12   ar
    15    12    13   ar
    16    13    14   ar
    17    14    15    1
    18    15    18    1
    19    18    19    1
    20    19    20   ar
    21    20    21   ar
    22    21    22   ar
    23    22    23   ar
    24    23    24   ar
    25    15    16   am
    26    16    17    2
    27     3     4   ar
    28     4     5   ar
    29    27    28   ar
    30    28    29   ar
    31    29    30   ar
    32    30    31    1
    33    31    32   ar
    34    32    33   ar
    35    33    34   ar
    36    34    35    1
    37    34    36   ar
    38    30    25   ar
    39    36    31   ar
    40     5     1   ar
    41    16     6    1
    42    14     9   ar
    43    24    19   ar
