@<TRIPOS>MOLECULE
*****
 35 39 0 0 0
SMALL
GASTEIGER

@<TRIPOS>ATOM
      1 N         142.8002  138.6248  159.6250 N.am    1  UNL1       -0.2438
      2 C         143.9237  138.6448  160.6188 C.3     1  UNL1        0.1001
      3 C         143.3387  138.4346  161.9840 C.3     1  UNL1        0.0306
      4 C         141.8537  138.2848  161.8340 C.3     1  UNL1        0.0737
      5 C         140.3908  138.1538  161.5296 C.3     1  UNL1        0.0260
      6 C         139.4108  137.9263  162.6422 C.3     1  UNL1        0.0727
      7 N         139.8937  137.8299  164.0590 N.3     1  UNL1       -0.2703
      8 C         141.3566  137.9609  164.3634 C.3     1  UNL1        0.0727
      9 C         142.3366  138.1883  163.2508 C.3     1  UNL1        0.0260
     10 C         141.5209  138.4023  160.3761 C.2     1  UNL1        0.2296
     11 O         140.1496  138.3131  159.7748 O.2     1  UNL1       -0.2745
     12 C         143.4189  137.7944  155.7939 C.ar    1  UNL1        0.2181
     13 N         143.1979  139.1416  155.1726 N.ar    1  UNL1       -0.2122
     14 C         142.8444  140.3165  156.0354 C.ar    1  UNL1        0.1047
     15 C         142.7119  140.1443  157.5195 C.ar    1  UNL1        0.0555
     16 C         142.9328  138.7971  158.1409 C.ar    1  UNL1        0.1418
     17 N         143.2863  137.6221  157.2781 N.ar    1  UNL1       -0.1985
     18 C         143.8327  135.2435  155.5257 C.3     1  UNL1        0.1108
     19 N         143.7724  136.6194  154.9312 N.pl3   1  UNL1       -0.3013
     20 H         143.9648  136.7512  153.9747 H       1  UNL1        0.1497
     21 C         138.9135  137.6024  165.1716 C.3     1  UNL1        0.1063
     22 C         138.1806  138.7639  165.7745 C.3     1  UNL1        0.1483
     23 O         137.3218  138.5609  166.9875 O.3     1  UNL1       -0.3786
     24 H         136.9230  139.4063  167.2465 H       1  UNL1        0.2108
     25 C         138.3063  140.1286  165.1645 C.ar    1  UNL1        0.0015
     26 C         137.4843  140.4919  163.9636 C.ar    1  UNL1       -0.0020
     27 C         137.6101  141.8564  163.3536 C.ar    1  UNL1        0.0060
     28 C         138.5578  142.8577  163.9445 C.ar    1  UNL1        0.0748
     29 C         139.3798  142.4943  165.1455 C.ar    1  UNL1        0.0233
     30 C         139.2541  141.1298  165.7555 C.ar    1  UNL1       -0.0238
     31 C         140.0761  140.7665  166.9564 C.3     1  UNL1        0.0306
     32 C         140.2233  143.6811  165.5061 C.3     1  UNL1        0.2352
     33 O         139.9226  144.7780  164.5280 O.3     1  UNL1       -0.4404
     34 C         138.8933  144.2690  163.5629 C.2     1  UNL1        0.3413
     35 O         138.3030  145.0366  162.4173 O.2     1  UNL1       -0.2449
@<TRIPOS>BOND
     1    18    19    1
     2    19    12    1
     3    12    13   ar
     4    13    14   ar
     5    14    15   ar
     6    15    16   ar
     7    16     1    1
     8     1     2    1
     9     2     3    1
    10     3     4    1
    11     4     5    1
    12     5     6    1
    13     6     7    1
    14     7    21    1
    15    21    22    1
    16    22    23    1
    17    22    25    1
    18    25    26   ar
    19    26    27   ar
    20    27    28   ar
    21    28    29   ar
    22    29    30   ar
    23    30    31    1
    24    29    32    1
    25    32    33    1
    26    33    34    1
    27    34    35    2
    28     7     8    1
    29     8     9    1
    30     4    10    1
    31    10    11    2
    32    16    17   ar
    33    17    12   ar
    34    10     1   am
    35     9     4    1
    36    30    25   ar
    37    34    28    1
    38    19    20    1
    39    23    24    1
@<TRIPOS>MOLECULE
*****
 35 39 0 0 0
SMALL
GASTEIGER

@<TRIPOS>ATOM
      1 N         138.2916  140.0263  159.9294 N.am    1  UNL1       -0.2438
      2 C         138.8860  138.6491  159.9173 C.3     1  UNL1        0.1001
      3 C         139.0733  138.2125  161.3400 C.3     1  UNL1        0.0306
      4 C         138.5948  139.3199  162.2316 C.3     1  UNL1        0.0737
      5 C         138.0820  140.5068  162.9921 C.3     1  UNL1        0.0260
      6 C         138.0859  140.4952  164.4920 C.3     1  UNL1        0.0727
      7 N         138.6026  139.2968  165.2314 N.3     1  UNL1       -0.2703
      8 C         139.1153  138.1099  164.4710 C.3     1  UNL1        0.0727
      9 C         139.1114  138.1215  162.9710 C.3     1  UNL1        0.0260
     10 C         138.1116  140.4409  161.3598 C.2     1  UNL1        0.2296
     11 O         137.5476  141.7471  161.8348 O.2     1  UNL1       -0.2745
     12 C         136.5298  141.1834  156.5668 C.ar    1  UNL1        0.2181
     13 N         137.2341  142.4828  156.3104 N.ar    1  UNL1       -0.2122
     14 C         138.2908  142.9632  157.2603 C.ar    1  UNL1        0.1047
     15 C         138.6433  142.1444  158.4667 C.ar    1  UNL1        0.0555
     16 C         137.9391  140.8451  158.7231 C.ar    1  UNL1        0.1418
     17 N         136.8823  140.3646  157.7732 N.ar    1  UNL1       -0.1985
     18 C         134.1060  140.3569  156.1284 C.3     1  UNL1        0.1108
     19 N         135.4731  140.7029  155.6169 N.pl3   1  UNL1       -0.3013
     20 H         135.6767  140.6146  154.6578 H       1  UNL1        0.1497
     21 C         138.6064  139.2852  166.7314 C.3     1  UNL1        0.1063
     22 C         139.8173  139.7548  167.4819 C.3     1  UNL1        0.1483
     23 O         139.8021  139.7933  168.9814 O.3     1  UNL1       -0.3786
     24 H         140.6566  140.1186  169.3051 H       1  UNL1        0.2108
     25 C         141.0435  140.1858  166.7330 C.ar    1  UNL1        0.0015
     26 C         142.1079  139.1838  166.3970 C.ar    1  UNL1       -0.0020
     27 C         143.3341  139.6147  165.6481 C.ar    1  UNL1        0.0060
     28 C         143.4957  141.0477  165.2352 C.ar    1  UNL1        0.0748
     29 C         142.4312  142.0497  165.5713 C.ar    1  UNL1        0.0233
     30 C         141.2051  141.6187  166.3202 C.ar    1  UNL1       -0.0238
     31 C         140.1406  142.6207  166.6562 C.3     1  UNL1        0.0306
     32 C         142.8643  143.3828  165.0372 C.3     1  UNL1        0.2352
     33 O         144.1965  143.2047  164.3711 O.3     1  UNL1       -0.4404
     34 C         144.5867  141.7616  164.4935 C.2     1  UNL1        0.3413
     35 O         145.8466  141.1411  163.9666 O.2     1  UNL1       -0.2449
@<TRIPOS>BOND
     1    18    19    1
     2    19    12    1
     3    12    13   ar
     4    13    14   ar
     5    14    15   ar
     6    15    16   ar
     7    16     1    1
     8     1     2    1
     9     2     3    1
    10     3     4    1
    11     4     5    1
    12     5     6    1
    13     6     7    1
    14     7    21    1
    15    21    22    1
    16    22    23    1
    17    22    25    1
    18    25    26   ar
    19    26    27   ar
    20    27    28   ar
    21    28    29   ar
    22    29    30   ar
    23    30    31    1
    24    29    32    1
    25    32    33    1
    26    33    34    1
    27    34    35    2
    28     7     8    1
    29     8     9    1
    30     4    10    1
    31    10    11    2
    32    16    17   ar
    33    17    12   ar
    34    10     1   am
    35     9     4    1
    36    30    25   ar
    37    34    28    1
    38    19    20    1
    39    23    24    1
@<TRIPOS>MOLECULE
*****
 35 39 0 0 0
SMALL
GASTEIGER

@<TRIPOS>ATOM
      1 N         140.2683  144.6732  160.1866 N.am    1  UNL1       -0.2438
      2 C         139.9421  145.6802  161.2495 C.3     1  UNL1        0.1001
      3 C         139.4413  144.9383  162.4531 C.3     1  UNL1        0.0306
      4 C         139.4579  143.4726  162.1342 C.3     1  UNL1        0.0737
      5 C         139.5300  142.0468  161.6739 C.3     1  UNL1        0.0260
      6 C         139.1094  140.9395  162.5941 C.3     1  UNL1        0.0727
      7 N         138.6167  141.2579  163.9746 N.3     1  UNL1       -0.2703
      8 C         138.5445  142.6837  164.4349 C.3     1  UNL1        0.0727
      9 C         138.9651  143.7910  163.5147 C.3     1  UNL1        0.0260
     10 C         139.9690  143.3088  160.7335 C.2     1  UNL1        0.2296
     11 O         140.1492  142.0088  160.0071 O.2     1  UNL1       -0.2745
     12 C         140.6565  146.3114  156.5929 C.ar    1  UNL1        0.2181
     13 N         141.8642  145.5850  156.0792 N.ar    1  UNL1       -0.2122
     14 C         142.5399  144.5548  156.9347 C.ar    1  UNL1        0.1047
     15 C         142.0079  144.2508  158.3039 C.ar    1  UNL1        0.0555
     16 C         140.8003  144.9771  158.8175 C.ar    1  UNL1        0.1418
     17 N         140.1245  146.0074  157.9620 N.ar    1  UNL1       -0.1985
     18 C         138.8179  148.1199  156.2781 C.3     1  UNL1        0.1108
     19 N         139.9808  147.3416  155.7374 N.pl3   1  UNL1       -0.3013
     20 H         140.3004  147.5071  154.8210 H       1  UNL1        0.1497
     21 C         138.1960  140.1505  164.8949 C.3     1  UNL1        0.1063
     22 C         139.2118  139.4725  165.7658 C.3     1  UNL1        0.1483
     23 O         139.8185  138.1699  165.3358 O.3     1  UNL1       -0.3786
     24 H         140.4508  137.8703  166.0077 H       1  UNL1        0.2108
     25 C         139.6208  140.0972  167.0668 C.ar    1  UNL1        0.0015
     26 C         138.8182  139.8396  168.3076 C.ar    1  UNL1       -0.0020
     27 C         139.2272  140.4642  169.6085 C.ar    1  UNL1        0.0060
     28 C         140.4387  141.3465  169.6687 C.ar    1  UNL1        0.0748
     29 C         141.2413  141.6042  168.4280 C.ar    1  UNL1        0.0233
     30 C         140.8323  140.9795  167.1270 C.ar    1  UNL1       -0.0238
     31 C         141.6349  141.2372  165.8863 C.3     1  UNL1        0.0306
     32 C         142.3791  142.5112  168.7920 C.3     1  UNL1        0.2352
     33 O         142.2798  142.8142  170.2577 O.3     1  UNL1       -0.4404
     34 C         141.0806  142.0944  170.7995 C.2     1  UNL1        0.3413
     35 O         140.6063  142.1182  172.2224 O.2     1  UNL1       -0.2449
@<TRIPOS>BOND
     1    18    19    1
     2    19    12    1
     3    12    13   ar
     4    13    14   ar
     5    14    15   ar
     6    15    16   ar
     7    16     1    1
     8     1     2    1
     9     2     3    1
    10     3     4    1
    11     4     5    1
    12     5     6    1
    13     6     7    1
    14     7    21    1
    15    21    22    1
    16    22    23    1
    17    22    25    1
    18    25    26   ar
    19    26    27   ar
    20    27    28   ar
    21    28    29   ar
    22    29    30   ar
    23    30    31    1
    24    29    32    1
    25    32    33    1
    26    33    34    1
    27    34    35    2
    28     7     8    1
    29     8     9    1
    30     4    10    1
    31    10    11    2
    32    16    17   ar
    33    17    12   ar
    34    10     1   am
    35     9     4    1
    36    30    25   ar
    37    34    28    1
    38    19    20    1
    39    23    24    1
@<TRIPOS>MOLECULE
*****
 35 39 0 0 0
SMALL
GASTEIGER

@<TRIPOS>ATOM
      1 N         142.9512  138.4154  159.3813 N.am    1  UNL1       -0.2438
      2 C         142.9559  137.4040  160.4890 C.3     1  UNL1        0.1001
      3 C         143.4903  138.0697  161.7223 C.3     1  UNL1        0.0306
      4 C         143.8160  139.4927  161.3770 C.3     1  UNL1        0.0737
      5 C         144.0922  140.8829  160.8862 C.3     1  UNL1        0.0260
      6 C         144.6526  141.9115  161.8231 C.3     1  UNL1        0.0727
      7 N         144.9368  141.5499  163.2508 N.3     1  UNL1       -0.2703
      8 C         144.6606  140.1596  163.7416 C.3     1  UNL1        0.0727
      9 C         144.1002  139.1310  162.8047 C.3     1  UNL1        0.0260
     10 C         143.4828  139.7064  159.9301 C.2     1  UNL1        0.2296
     11 O         143.6516  140.9862  159.1662 O.2     1  UNL1       -0.2745
     12 C         142.7658  136.9557  155.6956 C.ar    1  UNL1        0.2181
     13 N         141.5829  137.7025  155.1541 N.ar    1  UNL1       -0.2122
     14 C         140.8563  138.6869  156.0217 C.ar    1  UNL1        0.1047
     15 C         141.3124  138.9246  157.4307 C.ar    1  UNL1        0.0555
     16 C         142.4951  138.1778  157.9722 C.ar    1  UNL1        0.1418
     17 N         143.2219  137.1933  157.1047 N.ar    1  UNL1       -0.1985
     18 C         142.8311  134.6818  154.4403 C.3     1  UNL1        0.1108
     19 N         143.4925  135.9712  154.8280 N.pl3   1  UNL1       -0.3013
     20 H         144.4036  136.1712  154.5131 H       1  UNL1        0.1497
     21 C         145.4972  142.5785  164.1878 C.3     1  UNL1        0.1063
     22 C         144.5738  143.4093  165.0287 C.3     1  UNL1        0.1483
     23 O         145.0690  144.0216  166.3054 O.3     1  UNL1       -0.3786
     24 H         144.3514  144.5229  166.7232 H       1  UNL1        0.2108
     25 C         143.1552  143.6279  164.5929 C.ar    1  UNL1        0.0015
     26 C         142.8412  144.6608  163.5516 C.ar    1  UNL1       -0.0020
     27 C         141.4227  144.8794  163.1158 C.ar    1  UNL1        0.0060
     28 C         140.3182  144.0651  163.7214 C.ar    1  UNL1        0.0748
     29 C         140.6322  143.0321  164.7628 C.ar    1  UNL1        0.0233
     30 C         142.0507  142.8135  165.1986 C.ar    1  UNL1       -0.0238
     31 C         142.3647  141.7806  166.2399 C.3     1  UNL1        0.0306
     32 C         139.3437  142.3858  165.1778 C.3     1  UNL1        0.2352
     33 O         138.2334  143.0193  164.3930 O.3     1  UNL1       -0.4404
     34 C         138.8357  144.0571  163.4929 C.2     1  UNL1        0.3413
     35 O         138.0869  144.9332  162.5328 O.2     1  UNL1       -0.2449
@<TRIPOS>BOND
     1    18    19    1
     2    19    12    1
     3    12    13   ar
     4    13    14   ar
     5    14    15   ar
     6    15    16   ar
     7    16     1    1
     8     1     2    1
     9     2     3    1
    10     3     4    1
    11     4     5    1
    12     5     6    1
    13     6     7    1
    14     7    21    1
    15    21    22    1
    16    22    23    1
    17    22    25    1
    18    25    26   ar
    19    26    27   ar
    20    27    28   ar
    21    28    29   ar
    22    29    30   ar
    23    30    31    1
    24    29    32    1
    25    32    33    1
    26    33    34    1
    27    34    35    2
    28     7     8    1
    29     8     9    1
    30     4    10    1
    31    10    11    2
    32    16    17   ar
    33    17    12   ar
    34    10     1   am
    35     9     4    1
    36    30    25   ar
    37    34    28    1
    38    19    20    1
    39    23    24    1
@<TRIPOS>MOLECULE
*****
 35 39 0 0 0
SMALL
GASTEIGER

@<TRIPOS>ATOM
      1 N         141.0274  144.5224  158.4043 N.am    1  UNL1       -0.2438
      2 C         142.2997  143.7818  158.1163 C.3     1  UNL1        0.1001
      3 C         142.9015  143.3673  159.4262 C.3     1  UNL1        0.0306
      4 C         142.0012  143.8518  160.5239 C.3     1  UNL1        0.0737
      5 C         141.0091  144.3955  161.5088 C.3     1  UNL1        0.0260
      6 C         141.2285  144.2003  162.9798 C.3     1  UNL1        0.0727
      7 N         142.4400  143.4614  163.4658 N.3     1  UNL1       -0.2703
      8 C         143.4321  142.9176  162.4809 C.3     1  UNL1        0.0727
      9 C         143.2127  143.1128  161.0100 C.3     1  UNL1        0.0260
     10 C         140.8429  144.5656  159.8923 C.2     1  UNL1        0.2296
     11 O         139.7008  145.2097  160.6208 O.2     1  UNL1       -0.2745
     12 C         138.9929  147.1958  156.2916 C.ar    1  UNL1        0.2181
     13 N         138.2516  146.3021  155.3421 N.ar    1  UNL1       -0.2122
     14 C         138.4355  144.8152  155.4133 C.ar    1  UNL1        0.1047
     15 C         139.3608  144.2219  156.4341 C.ar    1  UNL1        0.0555
     16 C         140.1021  145.1156  157.3835 C.ar    1  UNL1        0.1418
     17 N         139.9182  146.6026  157.3123 N.ar    1  UNL1       -0.1985
     18 C         138.2361  149.4246  157.3916 C.3     1  UNL1        0.1108
     19 N         138.8090  148.6828  156.2204 N.pl3   1  UNL1       -0.3013
     20 H         139.0643  149.1719  155.4050 H       1  UNL1        0.1497
     21 C         142.6594  143.2662  164.9369 C.3     1  UNL1        0.1063
     22 C         142.7417  141.8806  165.5055 C.3     1  UNL1        0.1483
     23 O         143.7777  140.9220  164.9980 O.3     1  UNL1       -0.3786
     24 H         143.6943  140.0773  165.4676 H       1  UNL1        0.2108
     25 C         141.7880  141.4537  166.5818 C.ar    1  UNL1        0.0015
     26 C         140.5015  140.7739  166.2174 C.ar    1  UNL1       -0.0020
     27 C         139.5478  140.3470  167.2935 C.ar    1  UNL1        0.0060
     28 C         139.8806  140.5999  168.7341 C.ar    1  UNL1        0.0748
     29 C         141.1671  141.2797  169.0985 C.ar    1  UNL1        0.0233
     30 C         142.1208  141.7066  168.0223 C.ar    1  UNL1       -0.0238
     31 C         143.4073  142.3864  168.3867 C.3     1  UNL1        0.0306
     32 C         141.2237  141.3942  170.5930 C.3     1  UNL1        0.2352
     33 O         139.9722  140.7851  171.1523 O.3     1  UNL1       -0.4404
     34 C         139.1421  140.2942  170.0034 C.2     1  UNL1        0.3413
     35 O         137.8078  139.6166  170.1059 O.2     1  UNL1       -0.2449
@<TRIPOS>BOND
     1    18    19    1
     2    19    12    1
     3    12    13   ar
     4    13    14   ar
     5    14    15   ar
     6    15    16   ar
     7    16     1    1
     8     1     2    1
     9     2     3    1
    10     3     4    1
    11     4     5    1
    12     5     6    1
    13     6     7    1
    14     7    21    1
    15    21    22    1
    16    22    23    1
    17    22    25    1
    18    25    26   ar
    19    26    27   ar
    20    27    28   ar
    21    28    29   ar
    22    29    30   ar
    23    30    31    1
    24    29    32    1
    25    32    33    1
    26    33    34    1
    27    34    35    2
    28     7     8    1
    29     8     9    1
    30     4    10    1
    31    10    11    2
    32    16    17   ar
    33    17    12   ar
    34    10     1   am
    35     9     4    1
    36    30    25   ar
    37    34    28    1
    38    19    20    1
    39    23    24    1
@<TRIPOS>MOLECULE
*****
 35 39 0 0 0
SMALL
GASTEIGER

@<TRIPOS>ATOM
      1 N         141.2754  138.3305  158.3645 N.am    1  UNL1       -0.2438
      2 C         139.9011  138.8211  158.0167 C.3     1  UNL1        0.1001
      3 C         139.1274  138.9754  159.2924 C.3     1  UNL1        0.0306
      4 C         140.0234  138.5802  160.4288 C.3     1  UNL1        0.0737
      5 C         141.0299  138.1568  161.4571 C.3     1  UNL1        0.0260
      6 C         140.6628  138.1597  162.9115 C.3     1  UNL1        0.0727
      7 N         139.2892  138.5859  163.3375 N.3     1  UNL1       -0.2703
      8 C         138.2827  139.0094  162.3091 C.3     1  UNL1        0.0727
      9 C         138.6498  139.0065  160.8548 C.3     1  UNL1        0.0260
     10 C         141.3509  138.1816  159.8553 C.2     1  UNL1        0.2296
     11 O         142.5444  137.7159  160.6354 O.2     1  UNL1       -0.2745
     12 C         143.8292  136.3297  156.0788 C.ar    1  UNL1        0.2181
     13 N         144.5894  137.4585  155.4479 N.ar    1  UNL1       -0.2122
     14 C         144.2449  138.8778  155.7893 C.ar    1  UNL1        0.1047
     15 C         143.1402  139.1685  156.7615 C.ar    1  UNL1        0.0555
     16 C         142.3800  138.0398  157.3923 C.ar    1  UNL1        0.1418
     17 N         142.7245  136.6204  157.0510 N.ar    1  UNL1       -0.1985
     18 C         143.8869  133.8122  156.7184 C.3     1  UNL1        0.1108
     19 N         144.1736  134.9103  155.7374 N.pl3   1  UNL1       -0.3013
     20 H         144.5878  134.6993  154.8696 H       1  UNL1        0.1497
     21 C         138.9222  138.5888  164.7919 C.3     1  UNL1        0.1063
     22 C         138.6497  139.8860  165.4941 C.3     1  UNL1        0.1483
     23 O         137.5977  140.8169  164.9683 O.3     1  UNL1       -0.3786
     24 H         137.5494  141.6031  165.5344 H       1  UNL1        0.2108
     25 C         139.4293  140.2522  166.7222 C.ar    1  UNL1        0.0015
     26 C         138.9416  139.8256  168.0751 C.ar    1  UNL1       -0.0020
     27 C         139.7211  140.1917  169.3031 C.ar    1  UNL1        0.0060
     28 C         140.9883  140.9846  169.1784 C.ar    1  UNL1        0.0748
     29 C         141.4760  141.4112  167.8256 C.ar    1  UNL1        0.0233
     30 C         140.6965  141.0450  166.5975 C.ar    1  UNL1       -0.0238
     31 C         141.1842  141.4716  165.2447 C.3     1  UNL1        0.0306
     32 C         142.7506  142.1794  168.0134 C.3     1  UNL1        0.2352
     33 O         143.0506  142.2276  169.4823 O.3     1  UNL1       -0.4404
     34 C         141.9615  141.4892  170.2023 C.2     1  UNL1        0.3413
     35 O         141.8628  141.2902  171.6857 O.2     1  UNL1       -0.2449
@<TRIPOS>BOND
     1    18    19    1
     2    19    12    1
     3    12    13   ar
     4    13    14   ar
     5    14    15   ar
     6    15    16   ar
     7    16     1    1
     8     1     2    1
     9     2     3    1
    10     3     4    1
    11     4     5    1
    12     5     6    1
    13     6     7    1
    14     7    21    1
    15    21    22    1
    16    22    23    1
    17    22    25    1
    18    25    26   ar
    19    26    27   ar
    20    27    28   ar
    21    28    29   ar
    22    29    30   ar
    23    30    31    1
    24    29    32    1
    25    32    33    1
    26    33    34    1
    27    34    35    2
    28     7     8    1
    29     8     9    1
    30     4    10    1
    31    10    11    2
    32    16    17   ar
    33    17    12   ar
    34    10     1   am
    35     9     4    1
    36    30    25   ar
    37    34    28    1
    38    19    20    1
    39    23    24    1
@<TRIPOS>MOLECULE
*****
 35 39 0 0 0
SMALL
GASTEIGER

@<TRIPOS>ATOM
      1 N         139.7039  140.5635  167.5246 N.am    1  UNL1       -0.2438
      2 C         138.8497  139.3977  167.1229 C.3     1  UNL1        0.1001
      3 C         138.3428  139.6512  165.7341 C.3     1  UNL1        0.0306
      4 C         138.8837  140.9737  165.2774 C.3     1  UNL1        0.0737
      5 C         139.4957  142.3059  164.9604 C.3     1  UNL1        0.0260
      6 C         139.2402  142.9512  163.6307 C.3     1  UNL1        0.0727
      7 N         138.3727  142.2643  162.6179 N.3     1  UNL1       -0.2703
      8 C         137.7607  140.9321  162.9349 C.3     1  UNL1        0.0727
      9 C         138.0162  140.2868  164.2647 C.3     1  UNL1        0.0260
     10 C         139.7249  141.5375  166.3840 C.2     1  UNL1        0.2296
     11 O         140.4583  142.8456  166.3551 O.2     1  UNL1       -0.2745
     12 C         142.2461  139.9667  170.5130 C.ar    1  UNL1        0.2181
     13 N         141.8301  141.0529  171.4603 N.ar    1  UNL1       -0.2122
     14 C         140.7054  141.9758  171.0956 C.ar    1  UNL1        0.1047
     15 C         139.9967  141.8127  169.7837 C.ar    1  UNL1        0.0555
     16 C         140.4126  140.7266  168.8365 C.ar    1  UNL1        0.1418
     17 N         141.5374  139.8036  169.2012 N.ar    1  UNL1       -0.1985
     18 C         143.3281  137.6053  170.4539 C.3     1  UNL1        0.1108
     19 N         143.3708  139.0437  170.8777 N.pl3   1  UNL1       -0.3013
     20 H         144.1371  139.3818  171.3951 H       1  UNL1        0.1497
     21 C         138.1173  142.9097  161.2881 C.3     1  UNL1        0.1063
     22 C         139.1018  142.7379  160.1696 C.3     1  UNL1        0.1483
     23 O         139.1169  143.7105  159.0277 O.3     1  UNL1       -0.3786
     24 H         139.8079  143.4568  158.3961 H       1  UNL1        0.2108
     25 C         140.0714  141.5936  160.1930 C.ar    1  UNL1        0.0015
     26 C         139.6351  140.2316  159.7406 C.ar    1  UNL1       -0.0020
     27 C         140.6045  139.0873  159.7639 C.ar    1  UNL1        0.0060
     28 C         142.0103  139.3049  160.2396 C.ar    1  UNL1        0.0748
     29 C         142.4466  140.6669  160.6921 C.ar    1  UNL1        0.0233
     30 C         141.4771  141.8112  160.6687 C.ar    1  UNL1       -0.0238
     31 C         141.9134  143.1732  161.1211 C.3     1  UNL1        0.0306
     32 C         143.8857  140.5789  161.1059 C.3     1  UNL1        0.2352
     33 O         144.3388  139.1625  160.9093 O.3     1  UNL1       -0.4404
     34 C         143.1798  138.3752  160.3739 C.2     1  UNL1        0.3413
     35 O         143.1886  136.9146  160.0327 O.2     1  UNL1       -0.2449
@<TRIPOS>BOND
     1    18    19    1
     2    19    12    1
     3    12    13   ar
     4    13    14   ar
     5    14    15   ar
     6    15    16   ar
     7    16     1    1
     8     1     2    1
     9     2     3    1
    10     3     4    1
    11     4     5    1
    12     5     6    1
    13     6     7    1
    14     7    21    1
    15    21    22    1
    16    22    23    1
    17    22    25    1
    18    25    26   ar
    19    26    27   ar
    20    27    28   ar
    21    28    29   ar
    22    29    30   ar
    23    30    31    1
    24    29    32    1
    25    32    33    1
    26    33    34    1
    27    34    35    2
    28     7     8    1
    29     8     9    1
    30     4    10    1
    31    10    11    2
    32    16    17   ar
    33    17    12   ar
    34    10     1   am
    35     9     4    1
    36    30    25   ar
    37    34    28    1
    38    19    20    1
    39    23    24    1
@<TRIPOS>MOLECULE
*****
 35 39 0 0 0
SMALL
GASTEIGER

@<TRIPOS>ATOM
      1 N         141.1428  138.5453  158.7166 N.am    1  UNL1       -0.2438
      2 C         139.7942  139.1511  158.4628 C.3     1  UNL1        0.1001
      3 C         139.0404  139.1641  159.7596 C.3     1  UNL1        0.0306
      4 C         139.9232  138.5664  160.8149 C.3     1  UNL1        0.0737
      5 C         140.9139  137.9503  161.7577 C.3     1  UNL1        0.0260
      6 C         140.5595  137.7672  163.2037 C.3     1  UNL1        0.0727
      7 N         139.2144  138.2003  163.7068 N.3     1  UNL1       -0.2703
      8 C         138.2237  138.8164  162.7641 C.3     1  UNL1        0.0727
      9 C         138.5781  138.9995  161.3181 C.3     1  UNL1        0.0260
     10 C         141.2225  138.1840  160.1703 C.2     1  UNL1        0.2296
     11 O         142.3956  137.5513  160.8585 O.2     1  UNL1       -0.2745
     12 C         143.7004  136.7390  156.2782 C.ar    1  UNL1        0.2181
     13 N         144.3809  137.9215  155.6547 N.ar    1  UNL1       -0.2122
     14 C         143.9820  139.3118  156.0519 C.ar    1  UNL1        0.1047
     15 C         142.9027  139.5197  157.0725 C.ar    1  UNL1        0.0555
     16 C         142.2222  138.3374  157.6959 C.ar    1  UNL1        0.1418
     17 N         142.6210  136.9470  157.2988 N.ar    1  UNL1       -0.1985
     18 C         143.7666  134.1893  156.7729 C.3     1  UNL1        0.1108
     19 N         144.0992  135.3486  155.8810 N.pl3   1  UNL1       -0.3013
     20 H         144.5793  135.1970  155.0350 H       1  UNL1        0.1497
     21 C         138.8600  138.0172  165.1529 C.3     1  UNL1        0.1063
     22 C         139.0425  139.1500  166.1190 C.3     1  UNL1        0.1483
     23 O         138.5130  139.0354  167.5178 O.3     1  UNL1       -0.3786
     24 H         138.7137  139.8485  168.0071 H       1  UNL1        0.2108
     25 C         139.7545  140.3974  165.6865 C.ar    1  UNL1        0.0015
     26 C         138.9724  141.5602  165.1515 C.ar    1  UNL1       -0.0020
     27 C         139.6843  142.8076  164.7189 C.ar    1  UNL1        0.0060
     28 C         141.1784  142.8921  164.8213 C.ar    1  UNL1        0.0748
     29 C         141.9605  141.7294  165.3563 C.ar    1  UNL1        0.0233
     30 C         141.2486  140.4820  165.7889 C.ar    1  UNL1       -0.0238
     31 C         142.0307  139.3192  166.3238 C.3     1  UNL1        0.0306
     32 C         143.4136  142.1014  165.3403 C.3     1  UNL1        0.2352
     33 O         143.5295  143.4942  164.7955 O.3     1  UNL1       -0.4404
     34 C         142.1481  143.9828  164.4747 C.2     1  UNL1        0.3413
     35 O         141.7978  145.3264  163.9071 O.2     1  UNL1       -0.2449
@<TRIPOS>BOND
     1    18    19    1
     2    19    12    1
     3    12    13   ar
     4    13    14   ar
     5    14    15   ar
     6    15    16   ar
     7    16     1    1
     8     1     2    1
     9     2     3    1
    10     3     4    1
    11     4     5    1
    12     5     6    1
    13     6     7    1
    14     7    21    1
    15    21    22    1
    16    22    23    1
    17    22    25    1
    18    25    26   ar
    19    26    27   ar
    20    27    28   ar
    21    28    29   ar
    22    29    30   ar
    23    30    31    1
    24    29    32    1
    25    32    33    1
    26    33    34    1
    27    34    35    2
    28     7     8    1
    29     8     9    1
    30     4    10    1
    31    10    11    2
    32    16    17   ar
    33    17    12   ar
    34    10     1   am
    35     9     4    1
    36    30    25   ar
    37    34    28    1
    38    19    20    1
    39    23    24    1
@<TRIPOS>MOLECULE
*****
 35 39 0 0 0
SMALL
GASTEIGER

@<TRIPOS>ATOM
      1 N         141.7272  139.7673  167.5328 N.am    1  UNL1       -0.2438
      2 C         142.9414  139.0662  166.9996 C.3     1  UNL1        0.1001
      3 C         142.6243  138.5760  165.6179 C.3     1  UNL1        0.0306
      4 C         141.2140  138.9740  165.2971 C.3     1  UNL1        0.0737
      5 C         139.7985  139.4373  165.1191 C.3     1  UNL1        0.0260
      6 C         139.0706  139.1496  163.8395 C.3     1  UNL1        0.0727
      7 N         139.7582  138.3986  162.7380 N.3     1  UNL1       -0.2703
      8 C         141.1736  137.9354  162.9161 C.3     1  UNL1        0.0727
      9 C         141.9016  138.2230  164.1956 C.3     1  UNL1        0.0260
     10 C         140.6596  139.7103  166.4806 C.2     1  UNL1        0.2296
     11 O         139.2799  140.2881  166.5922 O.2     1  UNL1       -0.2745
     12 C         140.5798  142.2444  170.4133 C.ar    1  UNL1        0.2181
     13 N         141.3529  141.7017  171.5785 N.ar    1  UNL1       -0.2122
     14 C         142.2507  140.5142  171.3951 C.ar    1  UNL1        0.1047
     15 C         142.3755  139.8694  170.0466 C.ar    1  UNL1        0.0555
     16 C         141.6024  140.4121  168.8814 C.ar    1  UNL1        0.1418
     17 N         140.7046  141.5996  169.0647 N.ar    1  UNL1       -0.1985
     18 C         140.1504  144.7968  170.1867 C.3     1  UNL1        0.1108
     19 N         139.6820  143.4319  170.5966 N.pl3   1  UNL1       -0.3013
     20 H         138.7852  143.3156  170.9859 H       1  UNL1        0.1497
     21 C         139.0302  138.1109  161.4584 C.3     1  UNL1        0.1063
     22 C         139.2484  138.9844  160.2587 C.3     1  UNL1        0.1483
     23 O         139.2645  138.3817  158.8852 O.3     1  UNL1       -0.3786
     24 H         139.4160  139.0789  158.2279 H       1  UNL1        0.2108
     25 C         139.4505  140.4606  160.4324 C.ar    1  UNL1        0.0015
     26 C         138.2766  141.3498  160.7175 C.ar    1  UNL1       -0.0020
     27 C         138.4786  142.8259  160.8912 C.ar    1  UNL1        0.0060
     28 C         139.8545  143.4128  160.7799 C.ar    1  UNL1        0.0748
     29 C         141.0284  142.5235  160.4949 C.ar    1  UNL1        0.0233
     30 C         140.8264  141.0474  160.3211 C.ar    1  UNL1       -0.0238
     31 C         142.0002  140.1582  160.0361 C.3     1  UNL1        0.0306
     32 C         142.2576  143.3816  160.4411 C.3     1  UNL1        0.2352
     33 O         141.8434  144.8011  160.6929 O.3     1  UNL1       -0.4404
     34 C         140.3583  144.8204  160.9023 C.2     1  UNL1        0.3413
     35 O         139.5233  146.0342  161.1845 O.2     1  UNL1       -0.2449
@<TRIPOS>BOND
     1    18    19    1
     2    19    12    1
     3    12    13   ar
     4    13    14   ar
     5    14    15   ar
     6    15    16   ar
     7    16     1    1
     8     1     2    1
     9     2     3    1
    10     3     4    1
    11     4     5    1
    12     5     6    1
    13     6     7    1
    14     7    21    1
    15    21    22    1
    16    22    23    1
    17    22    25    1
    18    25    26   ar
    19    26    27   ar
    20    27    28   ar
    21    28    29   ar
    22    29    30   ar
    23    30    31    1
    24    29    32    1
    25    32    33    1
    26    33    34    1
    27    34    35    2
    28     7     8    1
    29     8     9    1
    30     4    10    1
    31    10    11    2
    32    16    17   ar
    33    17    12   ar
    34    10     1   am
    35     9     4    1
    36    30    25   ar
    37    34    28    1
    38    19    20    1
    39    23    24    1
