@<TRIPOS>MOLECULE
*****
 36 40 0 0 0
SMALL
GASTEIGER

@<TRIPOS>ATOM
      1 C         138.6785  139.3093  167.3554 C.3     1  UNL1        0.0309
      2 C         140.0438  139.8771  167.1034 C.2     1  UNL1       -0.0191
      3 C         140.5663  139.9798  165.7011 C.2     1  UNL1        0.0177
      4 C         141.9316  140.5476  165.4491 C.3     1  UNL1        0.2102
      5 O         142.7745  141.0127  166.5994 O.3     1  UNL1       -0.4703
      6 C         142.2520  140.9100  168.0018 C.ar    1  UNL1        0.1391
      7 C         143.0949  141.3751  169.1521 C.ar    1  UNL1        0.0400
      8 C         142.5724  141.2725  170.5544 C.ar    1  UNL1        0.0397
      9 C         141.2071  140.7047  170.8064 C.ar    1  UNL1        0.1339
     10 O         140.6846  140.6020  172.2087 O.3     1  UNL1       -0.5055
     11 C         140.3642  140.2396  169.6561 C.ar    1  UNL1        0.0393
     12 C         140.8867  140.3422  168.2538 C.ar    1  UNL1        0.0329
     13 H         141.2112  140.8926  172.9273 H       1  UNL1        0.2922
     14 C         139.7234  139.5147  164.5508 C.ar    1  UNL1        0.0024
     15 C         139.8685  138.1145  164.0327 C.ar    1  UNL1        0.0000
     16 C         139.0256  137.6493  162.8824 C.ar    1  UNL1        0.0031
     17 C         138.0378  138.5844  162.2501 C.ar    1  UNL1        0.0366
     18 C         137.8927  139.9846  162.7682 C.ar    1  UNL1        0.1337
     19 O         136.9048  140.9197  162.1359 O.3     1  UNL1       -0.5055
     20 C         138.7355  140.4497  163.9185 C.ar    1  UNL1        0.0364
     21 H         136.3783  140.6291  161.4174 H       1  UNL1        0.2922
     22 C         142.4541  140.6502  164.0468 C.ar    1  UNL1        0.0217
     23 C         142.1222  141.8491  163.2086 C.ar    1  UNL1        0.0026
     24 C         142.6446  141.9517  161.8064 C.ar    1  UNL1        0.0367
     25 C         143.4989  140.8555  161.2422 C.ar    1  UNL1        0.1386
     26 C         143.8308  139.6566  162.0803 C.ar    1  UNL1        0.0367
     27 C         143.3084  139.5540  163.4826 C.ar    1  UNL1        0.0026
     28 O         144.0214  140.9581  159.8398 O.3     1  UNL1       -0.4740
     29 C         144.6362  142.2396  159.3604 C.3     1  UNL1        0.2226
     30 C         144.6614  142.5570  157.8947 C.3     1  UNL1        0.1200
     31 N         145.9191  142.3497  157.1038 N.3     1  UNL1       -0.2693
     32 C         147.3133  142.8995  157.1652 C.3     1  UNL1        0.0764
     33 C         147.6977  142.0566  155.9855 C.3     1  UNL1        0.0673
     34 C         146.3034  141.5068  155.9241 C.3     1  UNL1        0.0764
     35 C         148.9553  141.8494  155.1947 C.3     1  UNL1        0.1959
     36 F         150.2860  141.8553  155.8869 F       1  UNL1       -0.2343
@<TRIPOS>BOND
     1     1     2    1
     2     2     3    2
     3     3    14    1
     4    14    15   ar
     5    15    16   ar
     6    16    17   ar
     7    17    18   ar
     8    18    19    1
     9    18    20   ar
    10     3     4    1
    11     4    22    1
    12    22    23   ar
    13    23    24   ar
    14    24    25   ar
    15    25    28    1
    16    28    29    1
    17    29    30    1
    18    30    31    1
    19    31    32    1
    20    32    33    1
    21    33    35    1
    22    35    36    1
    23    33    34    1
    24    25    26   ar
    25    26    27   ar
    26     4     5    1
    27     5     6    1
    28     6     7   ar
    29     7     8   ar
    30     8     9   ar
    31     9    10    1
    32     9    11   ar
    33    11    12   ar
    34    12     2    1
    35    20    14   ar
    36    27    22   ar
    37    12     6   ar
    38    34    31    1
    39    19    21    1
    40    10    13    1
@<TRIPOS>MOLECULE
*****
 36 40 0 0 0
SMALL
GASTEIGER

@<TRIPOS>ATOM
      1 C         138.4379  139.4233  167.1302 C.3     1  UNL1        0.0309
      2 C         139.8955  139.7098  166.9219 C.2     1  UNL1       -0.0191
      3 C         140.4887  139.6190  165.5472 C.2     1  UNL1        0.0177
      4 C         141.9463  139.9055  165.3389 C.3     1  UNL1        0.2102
      5 O         142.8107  140.2827  166.5053 O.3     1  UNL1       -0.4703
      6 C         142.2175  140.3735  167.8800 C.ar    1  UNL1        0.1391
      7 C         143.0818  140.7508  169.0464 C.ar    1  UNL1        0.0400
      8 C         142.4886  140.8416  170.4211 C.ar    1  UNL1        0.0397
      9 C         141.0310  140.5551  170.6294 C.ar    1  UNL1        0.1339
     10 O         140.4378  140.6459  172.0042 O.3     1  UNL1       -0.5055
     11 C         140.1667  140.1778  169.4630 C.ar    1  UNL1        0.0393
     12 C         140.7599  140.0871  168.0884 C.ar    1  UNL1        0.0329
     13 H         140.9778  140.8816  172.7328 H       1  UNL1        0.2922
     14 C         139.6243  139.2417  164.3807 C.ar    1  UNL1        0.0024
     15 C         139.5959  137.8223  163.8964 C.ar    1  UNL1        0.0000
     16 C         138.7316  137.4450  162.7300 C.ar    1  UNL1        0.0031
     17 C         137.8957  138.4870  162.0479 C.ar    1  UNL1        0.0366
     18 C         137.9241  139.9064  162.5322 C.ar    1  UNL1        0.1337
     19 O         137.0881  140.9485  161.8501 O.3     1  UNL1       -0.5055
     20 C         138.7884  140.2837  163.6986 C.ar    1  UNL1        0.0364
     21 H         136.5482  140.7128  161.1215 H       1  UNL1        0.2922
     22 C         142.5395  139.8147  163.9641 C.ar    1  UNL1        0.0217
     23 C         142.5339  141.0146  163.0641 C.ar    1  UNL1        0.0026
     24 C         143.1271  140.9238  161.6894 C.ar    1  UNL1        0.0367
     25 C         143.7258  139.6330  161.2147 C.ar    1  UNL1        0.1386
     26 C         143.7314  138.4330  162.1147 C.ar    1  UNL1        0.0367
     27 C         143.1382  138.5239  163.4894 C.ar    1  UNL1        0.0026
     28 O         144.3190  139.5422  159.8399 O.3     1  UNL1       -0.4740
     29 C         143.8297  140.4497  158.7505 C.3     1  UNL1        0.2226
     30 C         142.9271  139.9154  157.6783 C.3     1  UNL1        0.1200
     31 N         143.0205  138.4756  157.2679 N.3     1  UNL1       -0.2693
     32 C         143.4554  137.7523  156.0278 C.3     1  UNL1        0.0764
     33 C         143.1526  136.4395  156.6874 C.3     1  UNL1        0.0673
     34 C         142.7177  137.1628  157.9274 C.3     1  UNL1        0.0764
     35 C         143.2461  134.9998  156.2769 C.3     1  UNL1        0.1959
     36 F         144.2585  134.1003  156.9218 F       1  UNL1       -0.2343
@<TRIPOS>BOND
     1     1     2    1
     2     2     3    2
     3     3    14    1
     4    14    15   ar
     5    15    16   ar
     6    16    17   ar
     7    17    18   ar
     8    18    19    1
     9    18    20   ar
    10     3     4    1
    11     4    22    1
    12    22    23   ar
    13    23    24   ar
    14    24    25   ar
    15    25    28    1
    16    28    29    1
    17    29    30    1
    18    30    31    1
    19    31    32    1
    20    32    33    1
    21    33    35    1
    22    35    36    1
    23    33    34    1
    24    25    26   ar
    25    26    27   ar
    26     4     5    1
    27     5     6    1
    28     6     7   ar
    29     7     8   ar
    30     8     9   ar
    31     9    10    1
    32     9    11   ar
    33    11    12   ar
    34    12     2    1
    35    20    14   ar
    36    27    22   ar
    37    12     6   ar
    38    34    31    1
    39    19    21    1
    40    10    13    1
@<TRIPOS>MOLECULE
*****
 36 40 0 0 0
SMALL
GASTEIGER

@<TRIPOS>ATOM
      1 C         143.2764  139.0779  167.1706 C.3     1  UNL1        0.0309
      2 C         142.3536  140.2527  167.0353 C.2     1  UNL1       -0.0191
      3 C         141.9122  140.7070  165.6756 C.2     1  UNL1        0.0177
      4 C         140.9894  141.8818  165.5403 C.3     1  UNL1        0.2102
      5 O         140.5080  142.6023  166.7646 O.3     1  UNL1       -0.4703
      6 C         140.9494  142.1481  168.1244 C.ar    1  UNL1        0.1391
      7 C         140.4680  142.8686  169.3488 C.ar    1  UNL1        0.0400
      8 C         140.9094  142.4143  170.7084 C.ar    1  UNL1        0.0397
      9 C         141.8322  141.2395  170.8438 C.ar    1  UNL1        0.1339
     10 O         142.2736  140.7852  172.2035 O.3     1  UNL1       -0.5055
     11 C         142.3136  140.5190  169.6194 C.ar    1  UNL1        0.0393
     12 C         141.8722  140.9733  168.2597 C.ar    1  UNL1        0.0329
     13 H         141.9728  141.2353  172.9683 H       1  UNL1        0.2922
     14 C         142.3936  139.9865  164.4512 C.ar    1  UNL1        0.0024
     15 C         143.6584  140.4228  163.7729 C.ar    1  UNL1        0.0000
     16 C         144.1398  139.7023  162.5485 C.ar    1  UNL1        0.0031
     17 C         143.3564  138.5456  162.0024 C.ar    1  UNL1        0.0366
     18 C         142.0917  138.1093  162.6807 C.ar    1  UNL1        0.1337
     19 O         141.3083  136.9525  162.1346 O.3     1  UNL1       -0.5055
     20 C         141.6103  138.8297  163.9051 C.ar    1  UNL1        0.0364
     21 H         141.6091  136.5024  161.3697 H       1  UNL1        0.2922
     22 C         140.5480  142.3361  164.1805 C.ar    1  UNL1        0.0217
     23 C         139.1174  142.1693  163.7618 C.ar    1  UNL1        0.0026
     24 C         138.6761  142.6236  162.4021 C.ar    1  UNL1        0.0367
     25 C         139.6654  143.2446  161.4611 C.ar    1  UNL1        0.1386
     26 C         141.0961  143.4114  161.8798 C.ar    1  UNL1        0.0367
     27 C         141.5374  142.9571  163.2395 C.ar    1  UNL1        0.0026
     28 O         139.2240  143.6989  160.1014 O.3     1  UNL1       -0.4740
     29 C         139.8434  143.1007  158.8731 C.3     1  UNL1        0.2226
     30 C         139.4148  141.7425  158.4026 C.3     1  UNL1        0.1200
     31 N         139.0549  140.6820  159.4006 N.3     1  UNL1       -0.2693
     32 C         137.7708  140.1120  159.9261 C.3     1  UNL1        0.0764
     33 C         138.5460  139.1823  160.8119 C.3     1  UNL1        0.0673
     34 C         139.8301  139.7523  160.2864 C.3     1  UNL1        0.0764
     35 C         138.1861  138.1219  161.8099 C.3     1  UNL1        0.1959
     36 F         138.2115  138.4331  163.2770 F       1  UNL1       -0.2343
@<TRIPOS>BOND
     1     1     2    1
     2     2     3    2
     3     3    14    1
     4    14    15   ar
     5    15    16   ar
     6    16    17   ar
     7    17    18   ar
     8    18    19    1
     9    18    20   ar
    10     3     4    1
    11     4    22    1
    12    22    23   ar
    13    23    24   ar
    14    24    25   ar
    15    25    28    1
    16    28    29    1
    17    29    30    1
    18    30    31    1
    19    31    32    1
    20    32    33    1
    21    33    35    1
    22    35    36    1
    23    33    34    1
    24    25    26   ar
    25    26    27   ar
    26     4     5    1
    27     5     6    1
    28     6     7   ar
    29     7     8   ar
    30     8     9   ar
    31     9    10    1
    32     9    11   ar
    33    11    12   ar
    34    12     2    1
    35    20    14   ar
    36    27    22   ar
    37    12     6   ar
    38    34    31    1
    39    19    21    1
    40    10    13    1
@<TRIPOS>MOLECULE
*****
 36 40 0 0 0
SMALL
GASTEIGER

@<TRIPOS>ATOM
      1 C         138.7698  139.4871  167.2637 C.3     1  UNL1        0.0309
      2 C         139.9051  140.4528  167.0948 C.2     1  UNL1       -0.0191
      3 C         140.2930  140.9220  165.7239 C.2     1  UNL1        0.0177
      4 C         141.4283  141.8878  165.5550 C.3     1  UNL1        0.2102
      5 O         142.1756  142.3843  166.7571 O.3     1  UNL1       -0.4703
      6 C         141.7877  141.9151  168.1280 C.ar    1  UNL1        0.1391
      7 C         142.5351  142.4117  169.3300 C.ar    1  UNL1        0.0400
      8 C         142.1472  141.9425  170.7009 C.ar    1  UNL1        0.0397
      9 C         141.0119  140.9768  170.8698 C.ar    1  UNL1        0.1339
     10 O         140.6240  140.5076  172.2407 O.3     1  UNL1       -0.5055
     11 C         140.2645  140.4802  169.6678 C.ar    1  UNL1        0.0393
     12 C         140.6525  140.9494  168.2969 C.ar    1  UNL1        0.0329
     13 H         141.0908  140.8178  172.9916 H       1  UNL1        0.2922
     14 C         139.5456  140.4255  164.5218 C.ar    1  UNL1        0.0024
     15 C         138.3280  141.1575  164.0406 C.ar    1  UNL1        0.0000
     16 C         137.5807  140.6610  162.8386 C.ar    1  UNL1        0.0031
     17 C         138.0509  139.4325  162.1178 C.ar    1  UNL1        0.0366
     18 C         139.2686  138.7005  162.5990 C.ar    1  UNL1        0.1337
     19 O         139.7389  137.4720  161.8781 O.3     1  UNL1       -0.5055
     20 C         140.0159  139.1970  163.8010 C.ar    1  UNL1        0.0364
     21 H         139.2720  137.1618  161.1272 H       1  UNL1        0.2922
     22 C         141.8162  142.3570  164.1841 C.ar    1  UNL1        0.0217
     23 C         141.0820  143.4992  163.5467 C.ar    1  UNL1        0.0026
     24 C         141.4700  143.9683  162.1758 C.ar    1  UNL1        0.0367
     25 C         142.5920  143.2952  161.4423 C.ar    1  UNL1        0.1386
     26 C         143.3261  142.1530  162.0797 C.ar    1  UNL1        0.0367
     27 C         142.9382  141.6839  163.4506 C.ar    1  UNL1        0.0026
     28 O         142.9799  143.7644  160.0713 O.3     1  UNL1       -0.4740
     29 C         142.0970  143.4614  158.8972 C.3     1  UNL1        0.2226
     30 C         142.2847  142.1883  158.1265 C.3     1  UNL1        0.1200
     31 N         142.5007  140.8952  158.8554 N.3     1  UNL1       -0.2693
     32 C         143.6813  140.0056  159.1101 C.3     1  UNL1        0.0764
     33 C         142.8062  139.0665  159.8862 C.3     1  UNL1        0.0673
     34 C         141.6256  139.9560  159.6314 C.3     1  UNL1        0.0764
     35 C         143.0222  137.7734  160.6150 C.3     1  UNL1        0.1959
     36 F         142.9336  137.7323  162.1118 F       1  UNL1       -0.2343
@<TRIPOS>BOND
     1     1     2    1
     2     2     3    2
     3     3    14    1
     4    14    15   ar
     5    15    16   ar
     6    16    17   ar
     7    17    18   ar
     8    18    19    1
     9    18    20   ar
    10     3     4    1
    11     4    22    1
    12    22    23   ar
    13    23    24   ar
    14    24    25   ar
    15    25    28    1
    16    28    29    1
    17    29    30    1
    18    30    31    1
    19    31    32    1
    20    32    33    1
    21    33    35    1
    22    35    36    1
    23    33    34    1
    24    25    26   ar
    25    26    27   ar
    26     4     5    1
    27     5     6    1
    28     6     7   ar
    29     7     8   ar
    30     8     9   ar
    31     9    10    1
    32     9    11   ar
    33    11    12   ar
    34    12     2    1
    35    20    14   ar
    36    27    22   ar
    37    12     6   ar
    38    34    31    1
    39    19    21    1
    40    10    13    1
@<TRIPOS>MOLECULE
*****
 36 40 0 0 0
SMALL
GASTEIGER

@<TRIPOS>ATOM
      1 C         140.3365  139.0704  166.8711 C.3     1  UNL1        0.0309
      2 C         140.2674  140.5670  166.9436 C.2     1  UNL1       -0.0191
      3 C         140.1319  141.3734  165.6861 C.2     1  UNL1        0.0177
      4 C         140.0628  142.8701  165.7587 C.3     1  UNL1        0.2102
      5 O         140.1292  143.5603  167.0887 O.3     1  UNL1       -0.4703
      6 C         140.2648  142.7540  168.3463 C.ar    1  UNL1        0.1391
      7 C         140.3312  143.4442  169.6763 C.ar    1  UNL1        0.0400
      8 C         140.4667  142.6379  170.9338 C.ar    1  UNL1        0.0397
      9 C         140.5358  141.1412  170.8613 C.ar    1  UNL1        0.1339
     10 O         140.6713  140.3348  172.1189 O.3     1  UNL1       -0.5055
     11 C         140.4693  140.4509  169.5313 C.ar    1  UNL1        0.0393
     12 C         140.3338  141.2573  168.2738 C.ar    1  UNL1        0.0329
     13 H         140.7128  140.7661  172.9498 H       1  UNL1        0.2922
     14 C         140.0655  140.6831  164.3560 C.ar    1  UNL1        0.0024
     15 C         141.3288  140.3613  163.6141 C.ar    1  UNL1        0.0000
     16 C         141.2625  139.6711  162.2841 C.ar    1  UNL1        0.0031
     17 C         139.9327  139.3026  161.6959 C.ar    1  UNL1        0.0366
     18 C         138.6694  139.6245  162.4377 C.ar    1  UNL1        0.1337
     19 O         137.3396  139.2560  161.8494 O.3     1  UNL1       -0.5055
     20 C         138.7357  140.3147  163.7678 C.ar    1  UNL1        0.0364
     21 H         137.2981  138.8249  161.0186 H       1  UNL1        0.2922
     22 C         139.9273  143.6764  164.5011 C.ar    1  UNL1        0.0217
     23 C         141.1527  144.1735  163.7932 C.ar    1  UNL1        0.0026
     24 C         141.0172  144.9798  162.5356 C.ar    1  UNL1        0.0367
     25 C         139.6562  145.2891  161.9860 C.ar    1  UNL1        0.1386
     26 C         138.4308  144.7920  162.6939 C.ar    1  UNL1        0.0367
     27 C         138.5663  143.9857  163.9515 C.ar    1  UNL1        0.0026
     28 O         139.5207  146.0954  160.7284 O.3     1  UNL1       -0.4740
     29 C         140.3560  145.7598  159.5286 C.3     1  UNL1        0.2226
     30 C         140.2089  144.4240  158.8623 C.3     1  UNL1        0.1200
     31 N         141.2272  143.3493  159.1035 N.3     1  UNL1       -0.2693
     32 C         142.7179  143.3182  159.2675 C.3     1  UNL1        0.0764
     33 C         142.6673  141.8295  159.4447 C.3     1  UNL1        0.0673
     34 C         141.1766  141.8607  159.2807 C.3     1  UNL1        0.0764
     35 C         143.6855  140.7549  159.6859 C.3     1  UNL1        0.1959
     36 F         144.3421  140.6316  161.0289 F       1  UNL1       -0.2343
@<TRIPOS>BOND
     1     1     2    1
     2     2     3    2
     3     3    14    1
     4    14    15   ar
     5    15    16   ar
     6    16    17   ar
     7    17    18   ar
     8    18    19    1
     9    18    20   ar
    10     3     4    1
    11     4    22    1
    12    22    23   ar
    13    23    24   ar
    14    24    25   ar
    15    25    28    1
    16    28    29    1
    17    29    30    1
    18    30    31    1
    19    31    32    1
    20    32    33    1
    21    33    35    1
    22    35    36    1
    23    33    34    1
    24    25    26   ar
    25    26    27   ar
    26     4     5    1
    27     5     6    1
    28     6     7   ar
    29     7     8   ar
    30     8     9   ar
    31     9    10    1
    32     9    11   ar
    33    11    12   ar
    34    12     2    1
    35    20    14   ar
    36    27    22   ar
    37    12     6   ar
    38    34    31    1
    39    19    21    1
    40    10    13    1
@<TRIPOS>MOLECULE
*****
 36 40 0 0 0
SMALL
GASTEIGER

@<TRIPOS>ATOM
      1 C         138.8780  139.8190  167.5545 C.3     1  UNL1        0.0309
      2 C         140.2569  140.3119  167.2295 C.2     1  UNL1       -0.0191
      3 C         140.8347  140.0783  165.8651 C.2     1  UNL1        0.0177
      4 C         142.2136  140.5712  165.5401 C.3     1  UNL1        0.2102
      5 O         143.0147  141.2978  166.5794 O.3     1  UNL1       -0.4703
      6 C         142.4369  141.5315  167.9438 C.ar    1  UNL1        0.1391
      7 C         143.2380  142.2581  168.9832 C.ar    1  UNL1        0.0400
      8 C         142.6603  142.4917  170.3475 C.ar    1  UNL1        0.0397
      9 C         141.2814  141.9988  170.6726 C.ar    1  UNL1        0.1339
     10 O         140.7036  142.2325  172.0370 O.3     1  UNL1       -0.5055
     11 C         140.4802  141.2722  169.6332 C.ar    1  UNL1        0.0393
     12 C         141.0580  141.0386  168.2689 C.ar    1  UNL1        0.0329
     13 H         141.2040  142.6864  172.6862 H       1  UNL1        0.2922
     14 C         140.0335  139.3517  164.8257 C.ar    1  UNL1        0.0024
     15 C         140.2115  137.8740  164.6391 C.ar    1  UNL1        0.0000
     16 C         139.4105  137.1474  163.5998 C.ar    1  UNL1        0.0031
     17 C         138.4314  137.8984  162.7470 C.ar    1  UNL1        0.0366
     18 C         138.2534  139.3761  162.9336 C.ar    1  UNL1        0.1337
     19 O         137.2743  140.1272  162.0807 O.3     1  UNL1       -0.5055
     20 C         139.0545  140.1027  163.9729 C.ar    1  UNL1        0.0364
     21 H         136.7738  139.6733  161.4315 H       1  UNL1        0.2922
     22 C         142.7913  140.3375  164.1756 C.ar    1  UNL1        0.0217
     23 C         143.4372  139.0235  163.8496 C.ar    1  UNL1        0.0026
     24 C         144.0149  138.7899  162.4852 C.ar    1  UNL1        0.0367
     25 C         143.9468  139.8703  161.4468 C.ar    1  UNL1        0.1386
     26 C         143.3009  141.1842  161.7728 C.ar    1  UNL1        0.0367
     27 C         142.7232  141.4179  163.1372 C.ar    1  UNL1        0.0026
     28 O         144.5246  139.6366  160.0824 O.3     1  UNL1       -0.4740
     29 C         143.8564  140.2233  158.8744 C.3     1  UNL1        0.2226
     30 C         142.4581  139.8138  158.5177 C.3     1  UNL1        0.1200
     31 N         141.2928  140.6266  158.9988 N.3     1  UNL1       -0.2693
     32 C         140.8775  142.0625  158.8737 C.3     1  UNL1        0.0764
     33 C         139.6448  141.7761  159.6790 C.3     1  UNL1        0.0673
     34 C         140.0601  140.3402  159.8040 C.3     1  UNL1        0.0764
     35 C         138.4795  142.5889  160.1600 C.3     1  UNL1        0.1959
     36 F         138.4313  143.0621  161.5826 F       1  UNL1       -0.2343
@<TRIPOS>BOND
     1     1     2    1
     2     2     3    2
     3     3    14    1
     4    14    15   ar
     5    15    16   ar
     6    16    17   ar
     7    17    18   ar
     8    18    19    1
     9    18    20   ar
    10     3     4    1
    11     4    22    1
    12    22    23   ar
    13    23    24   ar
    14    24    25   ar
    15    25    28    1
    16    28    29    1
    17    29    30    1
    18    30    31    1
    19    31    32    1
    20    32    33    1
    21    33    35    1
    22    35    36    1
    23    33    34    1
    24    25    26   ar
    25    26    27   ar
    26     4     5    1
    27     5     6    1
    28     6     7   ar
    29     7     8   ar
    30     8     9   ar
    31     9    10    1
    32     9    11   ar
    33    11    12   ar
    34    12     2    1
    35    20    14   ar
    36    27    22   ar
    37    12     6   ar
    38    34    31    1
    39    19    21    1
    40    10    13    1
@<TRIPOS>MOLECULE
*****
 36 40 0 0 0
SMALL
GASTEIGER

@<TRIPOS>ATOM
      1 C         138.5311  139.5027  167.2428 C.3     1  UNL1        0.0309
      2 C         139.6391  140.5083  167.1383 C.2     1  UNL1       -0.0191
      3 C         140.0121  141.0772  165.8015 C.2     1  UNL1        0.0177
      4 C         141.1201  142.0829  165.6970 C.3     1  UNL1        0.2102
      5 O         141.8552  142.5197  166.9293 O.3     1  UNL1       -0.4703
      6 C         141.4823  141.9508  168.2663 C.ar    1  UNL1        0.1391
      7 C         142.2174  142.3876  169.4987 C.ar    1  UNL1        0.0400
      8 C         141.8445  141.8187  170.8355 C.ar    1  UNL1        0.0397
      9 C         140.7365  140.8130  170.9400 C.ar    1  UNL1        0.1339
     10 O         140.3636  140.2441  172.2770 O.3     1  UNL1       -0.5055
     11 C         140.0014  140.3762  169.7077 C.ar    1  UNL1        0.0393
     12 C         140.3743  140.9451  168.3708 C.ar    1  UNL1        0.0329
     13 H         140.8228  140.5170  173.0468 H       1  UNL1        0.2922
     14 C         139.2769  140.6404  164.5690 C.ar    1  UNL1        0.0024
     15 C         138.1494  141.4725  164.0339 C.ar    1  UNL1        0.0000
     16 C         137.4143  141.0358  162.8015 C.ar    1  UNL1        0.0031
     17 C         137.8067  139.7670  162.1042 C.ar    1  UNL1        0.0366
     18 C         138.9342  138.9350  162.6394 C.ar    1  UNL1        0.1337
     19 O         139.3266  137.6661  161.9421 O.3     1  UNL1       -0.5055
     20 C         139.6693  139.3717  163.8718 C.ar    1  UNL1        0.0364
     21 H         138.8674  137.3933  161.1722 H       1  UNL1        0.2922
     22 C         141.4930  142.6518  164.3600 C.ar    1  UNL1        0.0217
     23 C         142.4297  141.9013  163.4604 C.ar    1  UNL1        0.0026
     24 C         142.8025  142.4702  162.1236 C.ar    1  UNL1        0.0367
     25 C         142.2386  143.7896  161.6862 C.ar    1  UNL1        0.1386
     26 C         141.3019  144.5401  162.5858 C.ar    1  UNL1        0.0367
     27 C         140.9291  143.9712  163.9227 C.ar    1  UNL1        0.0026
     28 O         142.6115  144.3584  160.3493 O.3     1  UNL1       -0.4740
     29 C         142.1171  143.7061  159.0923 C.3     1  UNL1        0.2226
     30 C         142.4041  144.3320  157.7597 C.3     1  UNL1        0.1200
     31 N         141.3864  145.2270  157.1167 N.3     1  UNL1       -0.2693
     32 C         141.2938  145.9623  155.8125 C.3     1  UNL1        0.0764
     33 C         139.9474  146.4927  156.2072 C.3     1  UNL1        0.0673
     34 C         140.0400  145.7575  157.5114 C.3     1  UNL1        0.0764
     35 C         138.9298  147.3877  155.5642 C.3     1  UNL1        0.1959
     36 F         138.9826  148.8692  155.7931 F       1  UNL1       -0.2343
@<TRIPOS>BOND
     1     1     2    1
     2     2     3    2
     3     3    14    1
     4    14    15   ar
     5    15    16   ar
     6    16    17   ar
     7    17    18   ar
     8    18    19    1
     9    18    20   ar
    10     3     4    1
    11     4    22    1
    12    22    23   ar
    13    23    24   ar
    14    24    25   ar
    15    25    28    1
    16    28    29    1
    17    29    30    1
    18    30    31    1
    19    31    32    1
    20    32    33    1
    21    33    35    1
    22    35    36    1
    23    33    34    1
    24    25    26   ar
    25    26    27   ar
    26     4     5    1
    27     5     6    1
    28     6     7   ar
    29     7     8   ar
    30     8     9   ar
    31     9    10    1
    32     9    11   ar
    33    11    12   ar
    34    12     2    1
    35    20    14   ar
    36    27    22   ar
    37    12     6   ar
    38    34    31    1
    39    19    21    1
    40    10    13    1
@<TRIPOS>MOLECULE
*****
 36 40 0 0 0
SMALL
GASTEIGER

@<TRIPOS>ATOM
      1 C         138.8365  138.6863  165.7296 C.3     1  UNL1        0.0309
      2 C         139.4455  140.0523  165.8449 C.2     1  UNL1       -0.0191
      3 C         139.8046  140.8202  164.6075 C.2     1  UNL1        0.0177
      4 C         140.4136  142.1862  164.7228 C.3     1  UNL1        0.2102
      5 O         140.6634  142.7843  166.0755 O.3     1  UNL1       -0.4703
      6 C         140.3042  142.0163  167.3130 C.ar    1  UNL1        0.1391
      7 C         140.5540  142.6144  168.6657 C.ar    1  UNL1        0.0400
      8 C         140.1948  141.8464  169.9032 C.ar    1  UNL1        0.0397
      9 C         139.5859  140.4805  169.7879 C.ar    1  UNL1        0.1339
     10 O         139.2267  139.7125  171.0254 O.3     1  UNL1       -0.5055
     11 C         139.3361  139.8824  168.4351 C.ar    1  UNL1        0.0393
     12 C         139.6953  140.6503  167.1977 C.ar    1  UNL1        0.0329
     13 H         139.3828  140.0861  171.8704 H       1  UNL1        0.2922
     14 C         139.5549  140.2222  163.2547 C.ar    1  UNL1        0.0024
     15 C         140.6564  139.4965  162.5405 C.ar    1  UNL1        0.0000
     16 C         140.4067  138.8985  161.1878 C.ar    1  UNL1        0.0031
     17 C         139.0554  139.0261  160.5492 C.ar    1  UNL1        0.0366
     18 C         137.9539  139.7518  161.2634 C.ar    1  UNL1        0.1337
     19 O         136.6026  139.8795  160.6247 O.3     1  UNL1       -0.5055
     20 C         138.2036  140.3498  162.6161 C.ar    1  UNL1        0.0364
     21 H         136.4466  139.5059  159.7797 H       1  UNL1        0.2922
     22 C         140.7727  142.9541  163.4853 C.ar    1  UNL1        0.0217
     23 C         139.7294  143.7672  162.7779 C.ar    1  UNL1        0.0026
     24 C         140.0886  144.5351  161.5405 C.ar    1  UNL1        0.0367
     25 C         141.4911  144.4899  161.0104 C.ar    1  UNL1        0.1386
     26 C         142.5344  143.6768  161.7178 C.ar    1  UNL1        0.0367
     27 C         142.1752  142.9090  162.9552 C.ar    1  UNL1        0.0026
     28 O         141.8503  145.2578  159.7729 O.3     1  UNL1       -0.4740
     29 C         141.5165  144.7003  158.4210 C.3     1  UNL1        0.2226
     30 C         140.1515  144.9150  157.8374 C.3     1  UNL1        0.1200
     31 N         139.2216  143.7519  157.6568 N.3     1  UNL1       -0.2693
     32 C         138.5127  143.1320  156.4892 C.3     1  UNL1        0.0764
     33 C         137.9065  142.1070  157.4013 C.3     1  UNL1        0.0673
     34 C         138.6154  142.7269  158.5690 C.3     1  UNL1        0.0764
     35 C         136.9767  140.9440  157.2207 C.3     1  UNL1        0.1959
     36 F         135.7741  141.0759  156.3340 F       1  UNL1       -0.2343
@<TRIPOS>BOND
     1     1     2    1
     2     2     3    2
     3     3    14    1
     4    14    15   ar
     5    15    16   ar
     6    16    17   ar
     7    17    18   ar
     8    18    19    1
     9    18    20   ar
    10     3     4    1
    11     4    22    1
    12    22    23   ar
    13    23    24   ar
    14    24    25   ar
    15    25    28    1
    16    28    29    1
    17    29    30    1
    18    30    31    1
    19    31    32    1
    20    32    33    1
    21    33    35    1
    22    35    36    1
    23    33    34    1
    24    25    26   ar
    25    26    27   ar
    26     4     5    1
    27     5     6    1
    28     6     7   ar
    29     7     8   ar
    30     8     9   ar
    31     9    10    1
    32     9    11   ar
    33    11    12   ar
    34    12     2    1
    35    20    14   ar
    36    27    22   ar
    37    12     6   ar
    38    34    31    1
    39    19    21    1
    40    10    13    1
@<TRIPOS>MOLECULE
*****
 36 40 0 0 0
SMALL
GASTEIGER

@<TRIPOS>ATOM
      1 C         143.3929  142.4206  167.4818 C.3     1  UNL1        0.0309
      2 C         142.2318  141.5721  167.0555 C.2     1  UNL1       -0.0191
      3 C         142.1236  141.1089  165.6330 C.2     1  UNL1        0.0177
      4 C         140.9625  140.2603  165.2067 C.3     1  UNL1        0.2102
      5 O         139.9094  139.8750  166.2030 O.3     1  UNL1       -0.4703
      6 C         140.0175  140.3383  167.6256 C.ar    1  UNL1        0.1391
      7 C         138.9645  139.9530  168.6219 C.ar    1  UNL1        0.0400
      8 C         139.0726  140.4162  170.0444 C.ar    1  UNL1        0.0397
      9 C         140.2338  141.2648  170.4707 C.ar    1  UNL1        0.1339
     10 O         140.3419  141.7280  171.8933 O.3     1  UNL1       -0.5055
     11 C         141.2868  141.6500  169.4744 C.ar    1  UNL1        0.0393
     12 C         141.1787  141.1868  168.0519 C.ar    1  UNL1        0.0329
     13 H         139.6841  141.4873  172.5157 H       1  UNL1        0.2922
     14 C         143.1767  141.4941  164.6366 C.ar    1  UNL1        0.0024
     15 C         144.3637  140.6035  164.4176 C.ar    1  UNL1        0.0000
     16 C         145.4167  140.9888  163.4213 C.ar    1  UNL1        0.0031
     17 C         145.2828  142.2646  162.6440 C.ar    1  UNL1        0.0366
     18 C         144.0958  143.1552  162.8630 C.ar    1  UNL1        0.1337
     19 O         143.9619  144.4311  162.0856 O.3     1  UNL1       -0.5055
     20 C         143.0428  142.7700  163.8593 C.ar    1  UNL1        0.0364
     21 H         144.6198  144.6717  161.4632 H       1  UNL1        0.2922
     22 C         140.8544  139.7971  163.7841 C.ar    1  UNL1        0.0217
     23 C         140.1081  140.6251  162.7803 C.ar    1  UNL1        0.0026
     24 C         140.0001  140.1618  161.3578 C.ar    1  UNL1        0.0367
     25 C         140.6383  138.8706  160.9390 C.ar    1  UNL1        0.1386
     26 C         141.3845  138.0426  161.9427 C.ar    1  UNL1        0.0367
     27 C         141.4926  138.5059  163.3652 C.ar    1  UNL1        0.0026
     28 O         140.5302  138.4073  159.5163 O.3     1  UNL1       -0.4740
     29 C         141.6600  138.6511  158.5603 C.3     1  UNL1        0.2226
     30 C         142.6954  137.5892  158.3365 C.3     1  UNL1        0.1200
     31 N         142.4754  136.5355  157.2916 N.3     1  UNL1       -0.2693
     32 C         143.1865  135.2783  156.8870 C.3     1  UNL1        0.0764
     33 C         142.1645  135.0455  155.8141 C.3     1  UNL1        0.0673
     34 C         141.4534  136.3028  156.2187 C.3     1  UNL1        0.0764
     35 C         141.9446  133.9920  154.7693 C.3     1  UNL1        0.1959
     36 F         142.4946  134.1805  153.3866 F       1  UNL1       -0.2343
@<TRIPOS>BOND
     1     1     2    1
     2     2     3    2
     3     3    14    1
     4    14    15   ar
     5    15    16   ar
     6    16    17   ar
     7    17    18   ar
     8    18    19    1
     9    18    20   ar
    10     3     4    1
    11     4    22    1
    12    22    23   ar
    13    23    24   ar
    14    24    25   ar
    15    25    28    1
    16    28    29    1
    17    29    30    1
    18    30    31    1
    19    31    32    1
    20    32    33    1
    21    33    35    1
    22    35    36    1
    23    33    34    1
    24    25    26   ar
    25    26    27   ar
    26     4     5    1
    27     5     6    1
    28     6     7   ar
    29     7     8   ar
    30     8     9   ar
    31     9    10    1
    32     9    11   ar
    33    11    12   ar
    34    12     2    1
    35    20    14   ar
    36    27    22   ar
    37    12     6   ar
    38    34    31    1
    39    19    21    1
    40    10    13    1
