@<TRIPOS>MOLECULE
*****
 41 45 0 0 0
SMALL
GASTEIGER

@<TRIPOS>ATOM
      1 C         138.9288  144.2218  162.3768 C.2     1  UNL1        0.2251
      2 O         137.5896  144.8918  162.4653 O.2     1  UNL1       -0.2749
      3 N         139.5331  143.5894  163.5953 N.am    1  UNL1       -0.2795
      4 C         140.8722  142.9195  163.5067 C.3     1  UNL1        0.0942
      5 C         141.4765  142.2870  164.7253 C.3     1  UNL1        0.0343
      6 C         140.7416  142.3245  166.0324 C.3     1  UNL1        0.0911
      7 C         139.4024  142.9944  166.1209 C.3     1  UNL1        0.0343
      8 C         138.7981  143.6268  164.9024 C.3     1  UNL1        0.0942
      9 C         141.1336  144.1096  158.4555 C.3     1  UNL1        0.0542
     10 C         141.4744  145.1528  159.4780 C.3     1  UNL1        0.0162
     11 C         140.7395  145.1902  160.7851 C.3     1  UNL1        0.0104
     12 C         139.6638  144.1844  161.0697 C.3     1  UNL1        0.0768
     13 C         139.3229  143.1411  160.0472 C.3     1  UNL1        0.0095
     14 C         138.6451  141.9696  159.4006 C.3     1  UNL1        0.0005
     15 C         138.3526  142.7717  161.1297 C.3     1  UNL1        0.0005
     16 C         140.0578  143.1037  158.7401 C.3     1  UNL1        0.0162
     17 N         141.8686  144.0722  157.1484 N.3     1  UNL1       -0.2962
     18 H         142.5963  144.7851  157.1993 H       1  UNL1        0.1235
     19 C         141.1275  144.3008  155.8645 C.3     1  UNL1        0.0768
     20 C         140.9409  143.1715  154.8950 C.3     1  UNL1        0.0220
     21 C         139.4638  148.3742  154.9212 C.ar    1  UNL1        0.1387
     22 C         140.4034  147.7070  153.9610 C.ar    1  UNL1        0.0366
     23 C         140.9580  146.3492  154.2755 C.ar    1  UNL1        0.0001
     24 C         140.5729  145.6586  155.5501 C.ar    1  UNL1       -0.0078
     25 C         139.6333  146.3257  156.5103 C.ar    1  UNL1        0.0001
     26 C         139.0787  147.6835  156.1958 C.ar    1  UNL1        0.0366
     27 C         138.4837  150.6442  155.7188 C.3     1  UNL1        0.2525
     28 O         138.9092  149.7320  154.6068 O.3     1  UNL1       -0.4714
     29 C         141.9742  141.5775  166.4479 C.2     1  UNL1        0.2286
     30 O         143.0131  142.2550  167.2916 O.2     1  UNL1       -0.2746
     31 N         142.1680  140.1531  166.0197 N.am    1  UNL1       -0.2793
     32 C         143.3429  139.2833  166.3562 C.3     1  UNL1        0.0935
     33 C         143.1221  137.9409  165.7243 C.3     1  UNL1        0.0233
     34 C         141.8106  137.9811  164.9973 C.3     1  UNL1        0.0233
     35 C         141.2210  139.3482  165.1798 C.3     1  UNL1        0.0935
     36 C         140.4348  142.1025  167.4837 C.ar    1  UNL1       -0.0145
     37 C         139.9347  140.7669  167.9489 C.ar    1  UNL1       -0.0038
     38 C         139.6279  140.5449  169.4003 C.ar    1  UNL1       -0.0003
     39 C         139.8210  141.6584  170.3866 C.ar    1  UNL1       -0.0000
     40 C         140.3210  142.9939  169.9214 C.ar    1  UNL1       -0.0003
     41 C         140.6279  143.2160  168.4701 C.ar    1  UNL1       -0.0038
@<TRIPOS>BOND
     1    27    28    1
     2    28    21    1
     3    21    22   ar
     4    22    23   ar
     5    23    24   ar
     6    24    19    1
     7    19    20    1
     8    19    17    1
     9     9    17    1
    10     9    10    1
    11    10    11    1
    12    11    12    1
    13    12     1    1
    14     1     2    2
    15     1     3   am
    16     3     4    1
    17     4     5    1
    18     5     6    1
    19     6    29    1
    20    29    30    2
    21    29    31   am
    22    31    32    1
    23    32    33    1
    24    33    34    1
    25    34    35    1
    26     6    36    1
    27    36    37   ar
    28    37    38   ar
    29    38    39   ar
    30    39    40   ar
    31    40    41   ar
    32     6     7    1
    33     7     8    1
    34    12    13    1
    35    13    14    1
    36    13    15    1
    37    13    16    1
    38    24    25   ar
    39    25    26   ar
    40    26    21   ar
    41    16     9    1
    42     8     3    1
    43    35    31    1
    44    41    36   ar
    45    17    18    1
@<TRIPOS>MOLECULE
*****
 41 45 0 0 0
SMALL
GASTEIGER

@<TRIPOS>ATOM
      1 C         138.9314  144.2388  162.3459 C.2     1  UNL1        0.2251
      2 O         137.5949  144.9147  162.4295 O.2     1  UNL1       -0.2749
      3 N         139.5296  143.6063  163.5674 N.am    1  UNL1       -0.2795
      4 C         140.8661  142.9304  163.4838 C.3     1  UNL1        0.0942
      5 C         141.4644  142.2978  164.7053 C.3     1  UNL1        0.0343
      6 C         140.7261  142.3411  166.0103 C.3     1  UNL1        0.0911
      7 C         139.3896  143.0170  166.0938 C.3     1  UNL1        0.0343
      8 C         138.7914  143.6495  164.8724 C.3     1  UNL1        0.0942
      9 C         141.1462  144.1090  158.4309 C.3     1  UNL1        0.0542
     10 C         141.4598  145.1784  159.4348 C.3     1  UNL1        0.0162
     11 C         140.7215  145.2217  160.7399 C.3     1  UNL1        0.0104
     12 C         139.6697  144.1956  161.0409 C.3     1  UNL1        0.0768
     13 C         139.3561  143.1261  160.0369 C.3     1  UNL1        0.0095
     14 C         138.7080  141.9271  159.4106 C.3     1  UNL1        0.0005
     15 C         138.3928  142.7530  161.1244 C.3     1  UNL1        0.0005
     16 C         140.0943  143.0828  158.7319 C.3     1  UNL1        0.0162
     17 N         141.8845  144.0657  157.1258 N.3     1  UNL1       -0.2962
     18 H         141.1834  143.9460  156.3947 H       1  UNL1        0.1235
     19 C         142.9355  143.0212  156.8930 C.3     1  UNL1        0.0768
     20 C         143.6969  142.9985  155.6009 C.3     1  UNL1        0.0220
     21 C         143.8044  139.9559  160.0709 C.ar    1  UNL1        0.1387
     22 C         143.1068  139.5489  158.8070 C.ar    1  UNL1        0.0366
     23 C         142.8172  140.5706  157.7476 C.ar    1  UNL1        0.0001
     24 C         143.2251  141.9995  157.9523 C.ar    1  UNL1       -0.0078
     25 C         143.9227  142.4066  159.2163 C.ar    1  UNL1        0.0001
     26 C         144.2123  141.3848  160.2756 C.ar    1  UNL1        0.0366
     27 C         144.1628  139.3462  162.5708 C.3     1  UNL1        0.2525
     28 O         144.0940  138.9342  161.1302 O.3     1  UNL1       -0.4714
     29 C         141.9544  141.5896  166.4306 C.2     1  UNL1        0.2286
     30 O         143.0062  142.2722  167.2538 O.2     1  UNL1       -0.2746
     31 N         142.1308  140.1556  166.0278 N.am    1  UNL1       -0.2793
     32 C         143.2995  139.2804  166.3718 C.3     1  UNL1        0.0935
     33 C         143.0605  137.9288  165.7668 C.3     1  UNL1        0.0233
     34 C         141.7440  137.9686  165.0488 C.3     1  UNL1        0.0233
     35 C         141.1694  139.3447  165.2101 C.3     1  UNL1        0.0935
     36 C         140.4144  142.1234  167.4613 C.ar    1  UNL1       -0.0145
     37 C         140.5922  143.2436  168.4428 C.ar    1  UNL1       -0.0038
     38 C         140.2805  143.0258  169.8939 C.ar    1  UNL1       -0.0003
     39 C         139.7910  141.6880  170.3633 C.ar    1  UNL1       -0.0000
     40 C         139.6132  140.5678  169.3817 C.ar    1  UNL1       -0.0003
     41 C         139.9249  140.7854  167.9307 C.ar    1  UNL1       -0.0038
@<TRIPOS>BOND
     1    27    28    1
     2    28    21    1
     3    21    22   ar
     4    22    23   ar
     5    23    24   ar
     6    24    19    1
     7    19    20    1
     8    19    17    1
     9     9    17    1
    10     9    10    1
    11    10    11    1
    12    11    12    1
    13    12     1    1
    14     1     2    2
    15     1     3   am
    16     3     4    1
    17     4     5    1
    18     5     6    1
    19     6    29    1
    20    29    30    2
    21    29    31   am
    22    31    32    1
    23    32    33    1
    24    33    34    1
    25    34    35    1
    26     6    36    1
    27    36    37   ar
    28    37    38   ar
    29    38    39   ar
    30    39    40   ar
    31    40    41   ar
    32     6     7    1
    33     7     8    1
    34    12    13    1
    35    13    14    1
    36    13    15    1
    37    13    16    1
    38    24    25   ar
    39    25    26   ar
    40    26    21   ar
    41    16     9    1
    42     8     3    1
    43    35    31    1
    44    41    36   ar
    45    17    18    1
@<TRIPOS>MOLECULE
*****
 41 45 0 0 0
SMALL
GASTEIGER

@<TRIPOS>ATOM
      1 C         144.7348  141.8508  163.2707 C.2     1  UNL1        0.2251
      2 O         146.2228  141.7195  163.1330 O.2     1  UNL1       -0.2749
      3 N         143.9074  142.2764  162.0942 N.am    1  UNL1       -0.2795
      4 C         142.4195  142.4077  162.2320 C.3     1  UNL1        0.0942
      5 C         141.5920  142.8333  161.0554 C.3     1  UNL1        0.0343
      6 C         142.2524  143.1276  159.7412 C.3     1  UNL1        0.0911
      7 C         143.7403  142.9963  159.6035 C.3     1  UNL1        0.0343
      8 C         144.5678  142.5707  160.7800 C.3     1  UNL1        0.0942
      9 C         142.7536  140.9679  167.2134 C.3     1  UNL1        0.0542
     10 C         143.1464  142.3741  166.8697 C.3     1  UNL1        0.0162
     11 C         143.8068  142.6684  165.5555 C.3     1  UNL1        0.0104
     12 C         144.0744  141.5565  164.5849 C.3     1  UNL1        0.0768
     13 C         143.6817  140.1502  164.9286 C.3     1  UNL1        0.0095
     14 C         143.4958  138.6673  164.8005 C.3     1  UNL1        0.0005
     15 C         144.2775  139.9295  163.5699 C.3     1  UNL1        0.0005
     16 C         143.0213  139.8558  166.2429 C.3     1  UNL1        0.0162
     17 N         142.0932  140.6735  168.5277 N.3     1  UNL1       -0.2962
     18 H         142.4964  139.8018  168.8711 H       1  UNL1        0.1235
     19 C         140.6029  140.5195  168.6003 C.3     1  UNL1        0.0768
     20 C         139.9325  140.3299  169.9286 C.3     1  UNL1        0.0220
     21 C         138.1436  140.6263  164.8334 C.ar    1  UNL1        0.1387
     22 C         138.1537  139.3934  165.6877 C.ar    1  UNL1        0.0366
     23 C         138.9735  139.3579  166.9434 C.ar    1  UNL1        0.0001
     24 C         139.7831  140.5551  167.3447 C.ar    1  UNL1       -0.0078
     25 C         139.7730  141.7879  166.4903 C.ar    1  UNL1        0.0001
     26 C         138.9532  141.8235  165.2347 C.ar    1  UNL1        0.0366
     27 C         137.7870  141.4703  162.4022 C.3     1  UNL1        0.2525
     28 O         137.3238  140.6618  163.5777 O.3     1  UNL1       -0.4714
     29 C         140.8212  143.3931  159.3788 C.2     1  UNL1        0.2286
     30 O         140.2790  144.7904  159.4396 O.2     1  UNL1       -0.2746
     31 N         139.9324  142.2614  158.9557 N.am    1  UNL1       -0.2793
     32 C         138.4881  142.3728  158.5661 C.3     1  UNL1        0.0935
     33 C         137.9947  140.9998  158.2176 C.3     1  UNL1        0.0233
     34 C         139.1341  140.0398  158.3917 C.3     1  UNL1        0.0233
     35 C         140.3316  140.8195  158.8479 C.3     1  UNL1        0.0935
     36 C         142.4158  143.5141  158.3011 C.ar    1  UNL1       -0.0145
     37 C         142.1244  144.9191  157.8640 C.ar    1  UNL1       -0.0038
     38 C         142.2878  145.3056  156.4238 C.ar    1  UNL1       -0.0003
     39 C         142.7425  144.2872  155.4209 C.ar    1  UNL1       -0.0000
     40 C         143.0339  142.8822  155.8581 C.ar    1  UNL1       -0.0003
     41 C         142.8705  142.4956  157.2981 C.ar    1  UNL1       -0.0038
@<TRIPOS>BOND
     1    27    28    1
     2    28    21    1
     3    21    22   ar
     4    22    23   ar
     5    23    24   ar
     6    24    19    1
     7    19    20    1
     8    19    17    1
     9     9    17    1
    10     9    10    1
    11    10    11    1
    12    11    12    1
    13    12     1    1
    14     1     2    2
    15     1     3   am
    16     3     4    1
    17     4     5    1
    18     5     6    1
    19     6    29    1
    20    29    30    2
    21    29    31   am
    22    31    32    1
    23    32    33    1
    24    33    34    1
    25    34    35    1
    26     6    36    1
    27    36    37   ar
    28    37    38   ar
    29    38    39   ar
    30    39    40   ar
    31    40    41   ar
    32     6     7    1
    33     7     8    1
    34    12    13    1
    35    13    14    1
    36    13    15    1
    37    13    16    1
    38    24    25   ar
    39    25    26   ar
    40    26    21   ar
    41    16     9    1
    42     8     3    1
    43    35    31    1
    44    41    36   ar
    45    17    18    1
@<TRIPOS>MOLECULE
*****
 41 45 0 0 0
SMALL
GASTEIGER

@<TRIPOS>ATOM
      1 C         143.1804  143.9213  162.2945 C.2     1  UNL1        0.2251
      2 O         144.5504  144.5321  162.3099 O.2     1  UNL1       -0.2749
      3 N         142.6791  143.1737  163.4944 N.am    1  UNL1       -0.2795
      4 C         141.3092  142.5629  163.4790 C.3     1  UNL1        0.0942
      5 C         140.8078  141.8153  164.6789 C.3     1  UNL1        0.0343
      6 C         141.6764  141.6785  165.8942 C.3     1  UNL1        0.0911
      7 C         143.0463  142.2893  165.9095 C.3     1  UNL1        0.0343
      8 C         143.5477  143.0369  164.7097 C.3     1  UNL1        0.0942
      9 C         140.5748  144.3317  158.6487 C.3     1  UNL1        0.0542
     10 C         140.3793  145.2511  159.8177 C.3     1  UNL1        0.0162
     11 C         141.2478  145.1143  161.0329 C.3     1  UNL1        0.0104
     12 C         142.3119  144.0581  161.0793 C.3     1  UNL1        0.0768
     13 C         142.5074  143.1386  159.9103 C.3     1  UNL1        0.0095
     14 C         143.0728  142.0391  159.0609 C.3     1  UNL1        0.0005
     15 C         143.5723  142.6200  160.8306 C.3     1  UNL1        0.0005
     16 C         141.6389  143.2754  158.6950 C.3     1  UNL1        0.0162
     17 N         139.7062  144.4685  157.4335 N.3     1  UNL1       -0.2962
     18 H         139.3451  143.5380  157.2233 H       1  UNL1        0.1235
     19 C         140.2812  145.0081  156.1575 C.3     1  UNL1        0.0768
     20 C         141.1818  144.1504  155.3190 C.3     1  UNL1        0.0220
     21 C         139.3046  149.2002  154.8452 C.ar    1  UNL1        0.1387
     22 C         138.7842  148.6836  156.1537 C.ar    1  UNL1        0.0366
     23 C         139.1098  147.2862  156.5911 C.ar    1  UNL1        0.0001
     24 C         139.9557  146.4055  155.7200 C.ar    1  UNL1       -0.0078
     25 C         140.4760  146.9222  154.4115 C.ar    1  UNL1        0.0001
     26 C         140.1505  148.3195  153.9741 C.ar    1  UNL1        0.0366
     27 C         138.7233  151.6636  155.4315 C.3     1  UNL1        0.2525
     28 O         138.9790  150.5976  154.4077 O.3     1  UNL1       -0.4714
     29 C         140.4616  140.9299  166.3566 C.2     1  UNL1        0.2286
     30 O         139.6261  141.4749  167.4769 O.2     1  UNL1       -0.2746
     31 N         140.0822  139.6363  165.6988 N.am    1  UNL1       -0.2793
     32 C         138.9016  138.7809  166.0514 C.3     1  UNL1        0.0935
     33 C         138.9065  137.5869  165.1433 C.3     1  UNL1        0.0233
     34 C         140.0903  137.7045  164.2296 C.3     1  UNL1        0.0233
     35 C         140.8169  138.9711  164.5728 C.3     1  UNL1        0.0935
     36 C         142.1230  141.2817  167.2700 C.ar    1  UNL1       -0.0145
     37 C         142.4469  142.3360  168.2866 C.ar    1  UNL1       -0.0038
     38 C         142.8936  141.9392  169.6625 C.ar    1  UNL1       -0.0003
     39 C         143.0164  140.4882  170.0218 C.ar    1  UNL1       -0.0000
     40 C         142.6925  139.4338  169.0052 C.ar    1  UNL1       -0.0003
     41 C         142.2458  139.8305  167.6294 C.ar    1  UNL1       -0.0038
@<TRIPOS>BOND
     1    27    28    1
     2    28    21    1
     3    21    22   ar
     4    22    23   ar
     5    23    24   ar
     6    24    19    1
     7    19    20    1
     8    19    17    1
     9     9    17    1
    10     9    10    1
    11    10    11    1
    12    11    12    1
    13    12     1    1
    14     1     2    2
    15     1     3   am
    16     3     4    1
    17     4     5    1
    18     5     6    1
    19     6    29    1
    20    29    30    2
    21    29    31   am
    22    31    32    1
    23    32    33    1
    24    33    34    1
    25    34    35    1
    26     6    36    1
    27    36    37   ar
    28    37    38   ar
    29    38    39   ar
    30    39    40   ar
    31    40    41   ar
    32     6     7    1
    33     7     8    1
    34    12    13    1
    35    13    14    1
    36    13    15    1
    37    13    16    1
    38    24    25   ar
    39    25    26   ar
    40    26    21   ar
    41    16     9    1
    42     8     3    1
    43    35    31    1
    44    41    36   ar
    45    17    18    1
@<TRIPOS>MOLECULE
*****
 41 45 0 0 0
SMALL
GASTEIGER

@<TRIPOS>ATOM
      1 C         139.4132  144.2241  161.9769 C.2     1  UNL1        0.2251
      2 O         138.8486  145.5956  162.2014 O.2     1  UNL1       -0.2749
      3 N         140.0025  143.4586  163.1243 N.am    1  UNL1       -0.2795
      4 C         140.5671  142.0872  162.8997 C.3     1  UNL1        0.0942
      5 C         141.1565  141.3216  164.0472 C.3     1  UNL1        0.0343
      6 C         141.1812  141.9275  165.4192 C.3     1  UNL1        0.0911
      7 C         140.6166  143.2990  165.6437 C.3     1  UNL1        0.0343
      8 C         140.0273  144.0645  164.4963 C.3     1  UNL1        0.0942
      9 C         139.3389  142.4065  157.8610 C.3     1  UNL1        0.0542
     10 C         138.3968  141.9099  158.9172 C.3     1  UNL1        0.0162
     11 C         138.4215  142.5158  160.2892 C.3     1  UNL1        0.0104
     12 C         139.3884  143.6182  160.6049 C.3     1  UNL1        0.0768
     13 C         140.3307  144.1148  159.5486 C.3     1  UNL1        0.0095
     14 C         141.4119  144.9187  158.8893 C.3     1  UNL1        0.0005
     15 C         140.7309  144.9999  160.6916 C.3     1  UNL1        0.0005
     16 C         140.3059  143.5089  158.1766 C.3     1  UNL1        0.0162
     17 N         139.3142  141.8006  156.4890 N.3     1  UNL1       -0.2962
     18 H         138.3527  141.5091  156.3131 H       1  UNL1        0.1235
     19 C         140.1882  140.6232  156.1732 C.3     1  UNL1        0.0768
     20 C         140.0562  139.9239  154.8528 C.3     1  UNL1        0.0220
     21 C         143.2064  139.1888  159.1870 C.ar    1  UNL1        0.1387
     22 C         141.8400  138.5716  159.1418 C.ar    1  UNL1        0.0366
     23 C         140.8339  139.0498  158.1372 C.ar    1  UNL1        0.0001
     24 C         141.1943  140.1451  157.1778 C.ar    1  UNL1       -0.0078
     25 C         142.5606  140.7622  157.2231 C.ar    1  UNL1        0.0001
     26 C         143.5667  140.2841  158.2277 C.ar    1  UNL1        0.0366
     27 C         143.7537  138.0269  161.4454 C.3     1  UNL1        0.2525
     28 O         144.2124  138.7107  160.1917 O.3     1  UNL1       -0.4714
     29 C         141.8330  140.6072  165.7056 C.2     1  UNL1        0.2286
     30 O         141.1200  139.5839  166.5390 O.2     1  UNL1       -0.2746
     31 N         143.1978  140.3103  165.1588 N.am    1  UNL1       -0.2793
     32 C         143.9714  139.0410  165.3604 C.3     1  UNL1        0.0935
     33 C         145.2804  139.1767  164.6405 C.3     1  UNL1        0.0233
     34 C         145.3157  140.5297  163.9939 C.3     1  UNL1        0.0233
     35 C         144.0287  141.2303  164.3142 C.3     1  UNL1        0.0935
     36 C         141.4323  142.0749  166.8906 C.ar    1  UNL1       -0.0145
     37 C         140.2801  142.0838  167.8509 C.ar    1  UNL1       -0.0038
     38 C         140.5312  142.2312  169.3224 C.ar    1  UNL1       -0.0003
     39 C         141.9345  142.3696  169.8336 C.ar    1  UNL1       -0.0000
     40 C         143.0868  142.3607  168.8733 C.ar    1  UNL1       -0.0003
     41 C         142.8358  142.2133  167.4018 C.ar    1  UNL1       -0.0038
@<TRIPOS>BOND
     1    27    28    1
     2    28    21    1
     3    21    22   ar
     4    22    23   ar
     5    23    24   ar
     6    24    19    1
     7    19    20    1
     8    19    17    1
     9     9    17    1
    10     9    10    1
    11    10    11    1
    12    11    12    1
    13    12     1    1
    14     1     2    2
    15     1     3   am
    16     3     4    1
    17     4     5    1
    18     5     6    1
    19     6    29    1
    20    29    30    2
    21    29    31   am
    22    31    32    1
    23    32    33    1
    24    33    34    1
    25    34    35    1
    26     6    36    1
    27    36    37   ar
    28    37    38   ar
    29    38    39   ar
    30    39    40   ar
    31    40    41   ar
    32     6     7    1
    33     7     8    1
    34    12    13    1
    35    13    14    1
    36    13    15    1
    37    13    16    1
    38    24    25   ar
    39    25    26   ar
    40    26    21   ar
    41    16     9    1
    42     8     3    1
    43    35    31    1
    44    41    36   ar
    45    17    18    1
@<TRIPOS>MOLECULE
*****
 41 45 0 0 0
SMALL
GASTEIGER

@<TRIPOS>ATOM
      1 C         140.5953  144.5968  162.4043 C.2     1  UNL1        0.2251
      2 O         140.7745  146.0797  162.2661 O.2     1  UNL1       -0.2749
      3 N         140.1736  143.7788  161.2199 N.am    1  UNL1       -0.2795
      4 C         139.9944  142.2960  161.3581 C.3     1  UNL1        0.0942
      5 C         139.5726  141.4778  160.1736 C.3     1  UNL1        0.0343
      6 C         139.3301  142.1426  158.8510 C.3     1  UNL1        0.0911
      7 C         139.5094  143.6254  158.7128 C.3     1  UNL1        0.0343
      8 C         139.9311  144.4435  159.8973 C.3     1  UNL1        0.0942
      9 C         141.3228  142.6026  166.3721 C.3     1  UNL1        0.0542
     10 C         142.3661  142.5356  165.2966 C.3     1  UNL1        0.0162
     11 C         142.1236  143.2004  163.9740 C.3     1  UNL1        0.0104
     12 C         140.8378  143.9321  163.7269 C.3     1  UNL1        0.0768
     13 C         139.7943  143.9991  164.8025 C.3     1  UNL1        0.0095
     14 C         138.5121  144.3377  165.5033 C.3     1  UNL1        0.0005
     15 C         139.1065  144.7814  163.7233 C.3     1  UNL1        0.0005
     16 C         140.0368  143.3343  166.1251 C.3     1  UNL1        0.0162
     17 N         141.5653  141.9378  167.6947 N.3     1  UNL1       -0.2962
     18 H         142.5729  141.9541  167.8521 H       1  UNL1        0.1235
     19 C         141.1150  140.5245  167.9176 C.3     1  UNL1        0.0768
     20 C         141.2669  139.8934  169.2698 C.3     1  UNL1        0.0220
     21 C         139.3083  138.1780  164.5294 C.ar    1  UNL1        0.1387
     22 C         138.4211  138.9170  165.4868 C.ar    1  UNL1        0.0366
     23 C         139.0233  139.6992  166.6162 C.ar    1  UNL1        0.0001
     24 C         140.5128  139.7423  166.7882 C.ar    1  UNL1       -0.0078
     25 C         141.4000  139.0033  165.8308 C.ar    1  UNL1        0.0001
     26 C         140.7977  138.2211  164.7014 C.ar    1  UNL1        0.0366
     27 C         138.2531  138.1018  162.1565 C.3     1  UNL1        0.2525
     28 O         138.7061  137.3958  163.4000 O.3     1  UNL1       -0.4714
     29 C         139.0306  140.7189  158.4858 C.2     1  UNL1        0.2286
     30 O         137.6092  140.2436  158.4242 O.2     1  UNL1       -0.2746
     31 N         140.1524  139.7705  158.1822 N.am    1  UNL1       -0.2793
     32 C         140.0079  138.3261  157.8044 C.3     1  UNL1        0.0935
     33 C         141.3819  137.7629  157.5918 C.3     1  UNL1        0.0233
     34 C         142.3754  138.8593  157.8383 C.3     1  UNL1        0.0233
     35 C         141.6156  140.1001  158.2031 C.3     1  UNL1        0.0935
     36 C         138.9836  142.3129  157.4016 C.ar    1  UNL1       -0.0145
     37 C         137.5552  142.5145  156.9906 C.ar    1  UNL1       -0.0038
     38 C         137.2087  142.6848  155.5411 C.ar    1  UNL1       -0.0003
     39 C         138.2905  142.6535  154.5027 C.ar    1  UNL1       -0.0000
     40 C         139.7189  142.4519  154.9136 C.ar    1  UNL1       -0.0003
     41 C         140.0655  142.2816  156.3630 C.ar    1  UNL1       -0.0038
@<TRIPOS>BOND
     1    27    28    1
     2    28    21    1
     3    21    22   ar
     4    22    23   ar
     5    23    24   ar
     6    24    19    1
     7    19    20    1
     8    19    17    1
     9     9    17    1
    10     9    10    1
    11    10    11    1
    12    11    12    1
    13    12     1    1
    14     1     2    2
    15     1     3   am
    16     3     4    1
    17     4     5    1
    18     5     6    1
    19     6    29    1
    20    29    30    2
    21    29    31   am
    22    31    32    1
    23    32    33    1
    24    33    34    1
    25    34    35    1
    26     6    36    1
    27    36    37   ar
    28    37    38   ar
    29    38    39   ar
    30    39    40   ar
    31    40    41   ar
    32     6     7    1
    33     7     8    1
    34    12    13    1
    35    13    14    1
    36    13    15    1
    37    13    16    1
    38    24    25   ar
    39    25    26   ar
    40    26    21   ar
    41    16     9    1
    42     8     3    1
    43    35    31    1
    44    41    36   ar
    45    17    18    1
@<TRIPOS>MOLECULE
*****
 41 45 0 0 0
SMALL
GASTEIGER

@<TRIPOS>ATOM
      1 C         143.2812  143.9571  162.4717 C.2     1  UNL1        0.2251
      2 O         144.6364  144.5987  162.5180 O.2     1  UNL1       -0.2749
      3 N         142.7722  143.1931  163.6579 N.am    1  UNL1       -0.2795
      4 C         141.4172  142.5515  163.6116 C.3     1  UNL1        0.0942
      5 C         140.9081  141.7874  164.7978 C.3     1  UNL1        0.0343
      6 C         141.7542  141.6649  166.0303 C.3     1  UNL1        0.0911
      7 C         143.1094  142.3065  166.0766 C.3     1  UNL1        0.0343
      8 C         143.6183  143.0705  164.8904 C.3     1  UNL1        0.0942
      9 C         140.7429  144.3248  158.7742 C.3     1  UNL1        0.0542
     10 C         140.4102  145.1297  159.9954 C.3     1  UNL1        0.0162
     11 C         141.2563  145.0071  161.2279 C.3     1  UNL1        0.0104
     12 C         142.4351  144.0797  161.2392 C.3     1  UNL1        0.0768
     13 C         142.7679  143.2747  160.0180 C.3     1  UNL1        0.0095
     14 C         143.4804  142.3109  159.1160 C.3     1  UNL1        0.0005
     15 C         143.8614  142.8175  160.9372 C.3     1  UNL1        0.0005
     16 C         141.9218  143.3972  158.7854 C.3     1  UNL1        0.0162
     17 N         139.8968  144.4473  157.5417 N.3     1  UNL1       -0.2962
     18 H         139.3434  145.2976  157.6477 H       1  UNL1        0.1235
     19 C         138.9405  143.3510  157.1764 C.3     1  UNL1        0.0768
     20 C         138.0400  143.5067  155.9869 C.3     1  UNL1        0.0220
     21 C         138.7729  139.5949  159.6489 C.ar    1  UNL1        0.1387
     22 C         138.1844  140.8687  160.1791 C.ar    1  UNL1        0.0366
     23 C         138.2403  142.1207  159.3549 C.ar    1  UNL1        0.0001
     24 C         138.8846  142.0990  158.0006 C.ar    1  UNL1       -0.0078
     25 C         139.4731  140.8252  157.4704 C.ar    1  UNL1        0.0001
     26 C         139.4172  139.5731  158.2946 C.ar    1  UNL1        0.0366
     27 C         137.8802  138.3006  161.7172 C.3     1  UNL1        0.2525
     28 O         138.7171  138.3428  160.4731 O.3     1  UNL1       -0.4714
     29 C         140.5474  140.8870  166.4644 C.2     1  UNL1        0.2286
     30 O         139.6735  141.4108  167.5653 O.2     1  UNL1       -0.2746
     31 N         140.2145  139.5853  165.7977 N.am    1  UNL1       -0.2793
     32 C         139.0469  138.7014  166.1227 C.3     1  UNL1        0.0935
     33 C         139.1014  137.5087  165.2147 C.3     1  UNL1        0.0233
     34 C         140.3028  137.6554  164.3285 C.3     1  UNL1        0.0233
     35 C         140.9907  138.9387  164.6887 C.3     1  UNL1        0.0935
     36 C         142.1812  141.2722  167.4136 C.ar    1  UNL1       -0.0145
     37 C         142.5097  142.3295  168.4256 C.ar    1  UNL1       -0.0038
     38 C         142.9367  141.9367  169.8089 C.ar    1  UNL1       -0.0003
     39 C         143.0352  140.4868  170.1802 C.ar    1  UNL1       -0.0000
     40 C         142.7067  139.4295  169.1681 C.ar    1  UNL1       -0.0003
     41 C         142.2797  139.8222  167.7848 C.ar    1  UNL1       -0.0038
@<TRIPOS>BOND
     1    27    28    1
     2    28    21    1
     3    21    22   ar
     4    22    23   ar
     5    23    24   ar
     6    24    19    1
     7    19    20    1
     8    19    17    1
     9     9    17    1
    10     9    10    1
    11    10    11    1
    12    11    12    1
    13    12     1    1
    14     1     2    2
    15     1     3   am
    16     3     4    1
    17     4     5    1
    18     5     6    1
    19     6    29    1
    20    29    30    2
    21    29    31   am
    22    31    32    1
    23    32    33    1
    24    33    34    1
    25    34    35    1
    26     6    36    1
    27    36    37   ar
    28    37    38   ar
    29    38    39   ar
    30    39    40   ar
    31    40    41   ar
    32     6     7    1
    33     7     8    1
    34    12    13    1
    35    13    14    1
    36    13    15    1
    37    13    16    1
    38    24    25   ar
    39    25    26   ar
    40    26    21   ar
    41    16     9    1
    42     8     3    1
    43    35    31    1
    44    41    36   ar
    45    17    18    1
@<TRIPOS>MOLECULE
*****
 41 45 0 0 0
SMALL
GASTEIGER

@<TRIPOS>ATOM
      1 C         140.4842  144.2232  161.8220 C.2     1  UNL1        0.2251
      2 O         141.3856  145.2397  162.4578 O.2     1  UNL1       -0.2749
      3 N         140.2271  144.2684  160.3449 N.am    1  UNL1       -0.2795
      4 C         139.3257  143.2520  159.7092 C.3     1  UNL1        0.0942
      5 C         139.0685  143.2971  158.2320 C.3     1  UNL1        0.0343
      6 C         139.7128  144.3587  157.3907 C.3     1  UNL1        0.0911
      7 C         140.6143  145.3752  158.0265 C.3     1  UNL1        0.0343
      8 C         140.8714  145.3300  159.5036 C.3     1  UNL1        0.0942
      9 C         138.5512  141.0383  164.3459 C.3     1  UNL1        0.0542
     10 C         139.6510  140.6752  163.3928 C.3     1  UNL1        0.0162
     11 C         140.2953  141.7368  162.5514 C.3     1  UNL1        0.0104
     12 C         139.8399  143.1616  162.6633 C.3     1  UNL1        0.0768
     13 C         138.7400  143.5248  163.6165 C.3     1  UNL1        0.0095
     14 C         137.7438  144.3570  164.3682 C.3     1  UNL1        0.0005
     15 C         139.0384  144.8754  163.0363 C.3     1  UNL1        0.0005
     16 C         138.0957  142.4631  164.4578 C.3     1  UNL1        0.0162
     17 N         137.9069  139.9767  165.1872 N.3     1  UNL1       -0.2962
     18 H         137.3396  140.4580  165.8851 H       1  UNL1        0.1235
     19 C         138.7574  138.9877  165.9278 C.3     1  UNL1        0.0768
     20 C         138.5537  137.5167  165.7164 C.3     1  UNL1        0.0220
     21 C         141.9201  140.4336  168.7838 C.ar    1  UNL1        0.1387
     22 C         140.4773  140.4458  169.1937 C.ar    1  UNL1        0.0366
     23 C         139.4230  139.9639  168.2417 C.ar    1  UNL1        0.0001
     24 C         139.8116  139.4697  166.8798 C.ar    1  UNL1       -0.0078
     25 C         141.2545  139.4574  166.4700 C.ar    1  UNL1        0.0001
     26 C         142.3087  139.9394  167.4220 C.ar    1  UNL1        0.0366
     27 C         143.5848  142.2735  169.5540 C.3     1  UNL1        0.2525
     28 O         142.9743  140.9155  169.7358 O.3     1  UNL1       -0.4714
     29 C         138.9422  143.6221  156.3354 C.2     1  UNL1        0.2286
     30 O         137.7094  144.2361  155.7410 O.2     1  UNL1       -0.2746
     31 N         139.4043  142.2716  155.8746 N.am    1  UNL1       -0.2793
     32 C         138.7402  141.4204  154.8332 C.3     1  UNL1        0.0935
     33 C         139.5371  140.1578  154.6892 C.3     1  UNL1        0.0233
     34 C         140.6938  140.2286  155.6417 C.3     1  UNL1        0.0233
     35 C         140.6117  141.5350  156.3743 C.3     1  UNL1        0.0935
     36 C         140.0895  145.1645  156.1829 C.ar    1  UNL1       -0.0145
     37 C         139.4141  146.4771  155.9166 C.ar    1  UNL1       -0.0038
     38 C         139.7909  147.2830  154.7088 C.ar    1  UNL1       -0.0003
     39 C         140.8428  146.7762  153.7673 C.ar    1  UNL1       -0.0000
     40 C         141.5182  145.4636  154.0337 C.ar    1  UNL1       -0.0003
     41 C         141.1416  144.6577  155.2414 C.ar    1  UNL1       -0.0038
@<TRIPOS>BOND
     1    27    28    1
     2    28    21    1
     3    21    22   ar
     4    22    23   ar
     5    23    24   ar
     6    24    19    1
     7    19    20    1
     8    19    17    1
     9     9    17    1
    10     9    10    1
    11    10    11    1
    12    11    12    1
    13    12     1    1
    14     1     2    2
    15     1     3   am
    16     3     4    1
    17     4     5    1
    18     5     6    1
    19     6    29    1
    20    29    30    2
    21    29    31   am
    22    31    32    1
    23    32    33    1
    24    33    34    1
    25    34    35    1
    26     6    36    1
    27    36    37   ar
    28    37    38   ar
    29    38    39   ar
    30    39    40   ar
    31    40    41   ar
    32     6     7    1
    33     7     8    1
    34    12    13    1
    35    13    14    1
    36    13    15    1
    37    13    16    1
    38    24    25   ar
    39    25    26   ar
    40    26    21   ar
    41    16     9    1
    42     8     3    1
    43    35    31    1
    44    41    36   ar
    45    17    18    1
@<TRIPOS>MOLECULE
*****
 41 45 0 0 0
SMALL
GASTEIGER

@<TRIPOS>ATOM
      1 C         143.1398  144.0987  162.7579 C.2     1  UNL1        0.2251
      2 O         144.5439  144.6260  162.7361 O.2     1  UNL1       -0.2749
      3 N         142.6489  143.3212  163.9430 N.am    1  UNL1       -0.2795
      4 C         141.2449  142.7940  163.9648 C.3     1  UNL1        0.0942
      5 C         140.7540  142.0164  165.1500 C.3     1  UNL1        0.0343
      6 C         141.6672  141.7662  166.3133 C.3     1  UNL1        0.0911
      7 C         143.0713  142.2935  166.2915 C.3     1  UNL1        0.0343
      8 C         143.5622  143.0710  165.1064 C.3     1  UNL1        0.0942
      9 C         140.4001  144.8494  159.2679 C.3     1  UNL1        0.0542
     10 C         140.2169  145.6166  160.5437 C.3     1  UNL1        0.0162
     11 C         141.1301  145.3663  161.7071 C.3     1  UNL1        0.0104
     12 C         142.2266  144.3490  161.5946 C.3     1  UNL1        0.0768
     13 C         142.4098  143.5817  160.3187 C.3     1  UNL1        0.0095
     14 C         142.9788  142.6105  159.3272 C.3     1  UNL1        0.0005
     15 C         143.5206  142.9942  161.1377 C.3     1  UNL1        0.0005
     16 C         141.4966  143.8320  159.1553 C.3     1  UNL1        0.0162
     17 N         139.4869  145.0997  158.1045 N.3     1  UNL1       -0.2962
     18 H         138.5338  145.0697  158.4666 H       1  UNL1        0.1235
     19 C         139.5256  144.1911  156.9116 C.3     1  UNL1        0.0768
     20 C         140.6126  144.3419  155.8891 C.3     1  UNL1        0.0220
     21 C         136.3808  141.0132  156.4006 C.ar    1  UNL1        0.1387
     22 C         137.4414  140.8570  157.4497 C.ar    1  UNL1        0.0366
     23 C         138.4897  141.9163  157.6201 C.ar    1  UNL1        0.0001
     24 C         138.4774  143.1318  156.7413 C.ar    1  UNL1       -0.0078
     25 C         137.4168  143.2881  155.6922 C.ar    1  UNL1        0.0001
     26 C         136.3685  142.2288  155.5219 C.ar    1  UNL1        0.0366
     27 C         133.8835  140.2968  156.4107 C.3     1  UNL1        0.2525
     28 O         135.3326  139.9539  156.2303 O.3     1  UNL1       -0.4714
     29 C         140.4311  141.0678  166.7975 C.2     1  UNL1        0.2286
     30 O         139.6677  141.6180  167.9656 O.2     1  UNL1       -0.2746
     31 N         139.9585  139.8193  166.1136 N.am    1  UNL1       -0.2793
     32 C         138.7468  139.0161  166.4833 C.3     1  UNL1        0.0935
     33 C         138.6540  137.8551  165.5381 C.3     1  UNL1        0.0233
     34 C         139.8084  137.9408  164.5841 C.3     1  UNL1        0.0233
     35 C         140.6147  139.1546  164.9397 C.3     1  UNL1        0.0935
     36 C         142.1511  141.2734  167.6448 C.ar    1  UNL1       -0.0145
     37 C         142.2321  139.8002  167.9150 C.ar    1  UNL1       -0.0038
     38 C         142.7161  139.3074  169.2466 C.ar    1  UNL1       -0.0003
     39 C         143.1191  140.2878  170.3078 C.ar    1  UNL1       -0.0000
     40 C         143.0381  141.7610  170.0376 C.ar    1  UNL1       -0.0003
     41 C         142.5541  142.2539  168.7061 C.ar    1  UNL1       -0.0038
@<TRIPOS>BOND
     1    27    28    1
     2    28    21    1
     3    21    22   ar
     4    22    23   ar
     5    23    24   ar
     6    24    19    1
     7    19    20    1
     8    19    17    1
     9     9    17    1
    10     9    10    1
    11    10    11    1
    12    11    12    1
    13    12     1    1
    14     1     2    2
    15     1     3   am
    16     3     4    1
    17     4     5    1
    18     5     6    1
    19     6    29    1
    20    29    30    2
    21    29    31   am
    22    31    32    1
    23    32    33    1
    24    33    34    1
    25    34    35    1
    26     6    36    1
    27    36    37   ar
    28    37    38   ar
    29    38    39   ar
    30    39    40   ar
    31    40    41   ar
    32     6     7    1
    33     7     8    1
    34    12    13    1
    35    13    14    1
    36    13    15    1
    37    13    16    1
    38    24    25   ar
    39    25    26   ar
    40    26    21   ar
    41    16     9    1
    42     8     3    1
    43    35    31    1
    44    41    36   ar
    45    17    18    1
