@<TRIPOS>MOLECULE
*****
 32 35 0 0 0
SMALL
GASTEIGER

@<TRIPOS>ATOM
      1 N         138.4778  138.7515  163.7346 N.pl3   1  UNL1       -0.2978
      2 H         138.2408  137.8185  163.5282 H       1  UNL1        0.1536
      3 C         138.4045  139.7987  162.6631 C.ar    1  UNL1        0.1367
      4 C         138.0599  141.2142  163.0202 C.ar    1  UNL1        0.0685
      5 C         137.9865  142.2614  161.9487 C.ar    1  UNL1        0.1344
      6 N         138.2578  141.8930  160.5202 N.ar    1  UNL1       -0.1980
      7 N         138.2599  142.7032  159.2578 N.ar    1  UNL1       -0.1602
      8 C         138.6058  141.7883  158.1205 C.ar    1  UNL1        0.1339
      9 C         138.8174  140.4127  158.6801 C.ar    1  UNL1        0.1250
     10 C         138.6023  140.4774  160.1631 C.ar    1  UNL1        0.1776
     11 N         138.6757  139.4303  161.2346 N.ar    1  UNL1       -0.2109
     12 N         137.6420  143.6770  162.3058 N.pl3   1  UNL1       -0.3196
     13 H         137.0415  144.1988  161.7258 H       1  UNL1        0.1481
     14 C         138.2122  144.2974  163.5467 C.3     1  UNL1        0.0705
     15 C         138.0979  144.6240  165.0063 C.3     1  UNL1        0.0212
     16 C         139.3143  145.0455  164.2365 C.3     1  UNL1        0.0212
     17 C         139.1805  139.1876  157.8944 C.1     1  UNL1        0.1052
     18 N         139.5435  137.9624  157.1088 N.1     1  UNL1       -0.1907
     19 C         140.7102  140.0837  166.7334 C.ar    1  UNL1        0.0475
     20 C         140.2756  139.7093  165.3474 C.ar    1  UNL1        0.0290
     21 C         138.9124  139.1258  165.1206 C.ar    1  UNL1        0.0506
     22 C         137.9838  138.9167  166.2799 C.ar    1  UNL1        0.0144
     23 C         138.4184  139.2911  167.6660 C.ar    1  UNL1       -0.0018
     24 C         139.7815  139.8745  167.8927 C.ar    1  UNL1       -0.0089
     25 C         143.6924  142.6977  166.8863 C.3     1  UNL1        0.0949
     26 C         142.3292  142.1143  166.6596 C.2     1  UNL1        0.2266
     27 O         141.2219  142.9779  166.1324 O.2     1  UNL1       -0.2748
     28 N         142.0733  140.6671  166.9601 N.am    1  UNL1       -0.2841
     29 H         142.8001  140.1002  167.3061 H       1  UNL1        0.1548
     30 C         140.2161  140.2489  169.2787 C.3     1  UNL1        0.0236
     31 C         141.3052  139.4731  169.9584 C.3     1  UNL1        0.0047
     32 C         139.5616  141.3990  169.9850 C.3     1  UNL1        0.0047
@<TRIPOS>BOND
     1    25    26    1
     2    26    27    2
     3    26    28   am
     4    28    19    1
     5    19    20   ar
     6    20    21   ar
     7    21     1    1
     8     1     3    1
     9     3     4   ar
    10     4     5   ar
    11     5    12    1
    12    12    14    1
    13    14    15    1
    14    15    16    1
    15     5     6   ar
    16     6     7   ar
    17     7     8   ar
    18     8     9   ar
    19     9    17    1
    20    17    18    3
    21     9    10   ar
    22    10    11   ar
    23    21    22   ar
    24    22    23   ar
    25    23    24   ar
    26    24    30    1
    27    30    31    1
    28    30    32    1
    29    24    19   ar
    30    11     3   ar
    31    16    14    1
    32    10     6   ar
    33    28    29    1
    34     1     2    1
    35    12    13    1
@<TRIPOS>MOLECULE
*****
 32 35 0 0 0
SMALL
GASTEIGER

@<TRIPOS>ATOM
      1 N         144.4030  142.2841  164.2539 N.pl3   1  UNL1       -0.2978
      2 H         145.3838  142.2620  164.1709 H       1  UNL1        0.1536
      3 C         143.5765  142.9646  163.2032 C.ar    1  UNL1        0.1367
      4 C         142.4643  143.8872  163.6049 C.ar    1  UNL1        0.0685
      5 C         141.6377  144.5677  162.5542 C.ar    1  UNL1        0.1344
      6 N         141.9236  144.3255  161.1018 N.ar    1  UNL1       -0.1980
      7 N         141.2831  144.8512  159.8515 N.ar    1  UNL1       -0.1602
      8 C         141.9995  144.2534  158.6770 C.ar    1  UNL1        0.1339
      9 C         143.0828  143.3582  159.2014 C.ar    1  UNL1        0.1250
     10 C         143.0359  143.4028  160.7000 C.ar    1  UNL1        0.1776
     11 N         143.8624  142.7223  161.7507 N.ar    1  UNL1       -0.2109
     12 N         140.5254  145.4904  162.9560 N.pl3   1  UNL1       -0.3196
     13 H         140.5662  146.4444  162.7161 H       1  UNL1        0.1481
     14 C         139.3510  144.9596  163.7234 C.3     1  UNL1        0.0705
     15 C         138.0239  144.2609  163.7481 C.3     1  UNL1        0.0212
     16 C         138.6438  144.7389  165.0277 C.3     1  UNL1        0.0212
     17 C         144.0442  142.5589  158.3727 C.1     1  UNL1        0.1052
     18 N         145.0056  141.7596  157.5440 N.1     1  UNL1       -0.1907
     19 C         142.6733  141.8183  167.7953 C.ar    1  UNL1        0.0475
     20 C         143.3412  142.4651  166.6182 C.ar    1  UNL1        0.0290
     21 C         143.7351  141.6373  165.4310 C.ar    1  UNL1        0.0506
     22 C         143.4612  140.1625  165.4209 C.ar    1  UNL1        0.0144
     23 C         142.7933  139.5157  166.5980 C.ar    1  UNL1       -0.0018
     24 C         142.3994  140.3435  167.7851 C.ar    1  UNL1       -0.0089
     25 C         140.5537  144.1639  170.1943 C.3     1  UNL1        0.0949
     26 C         140.9476  143.3360  169.0072 C.2     1  UNL1        0.2266
     27 O         140.0098  143.1979  167.8447 O.2     1  UNL1       -0.2748
     28 N         142.2794  142.6462  168.9825 N.am    1  UNL1       -0.2841
     29 H         142.8949  142.7368  169.7455 H       1  UNL1        0.1548
     30 C         141.7315  139.6967  168.9622 C.3     1  UNL1        0.0236
     31 C         142.5421  138.8962  169.9380 C.3     1  UNL1        0.0047
     32 C         140.2530  139.8503  169.1635 C.3     1  UNL1        0.0047
@<TRIPOS>BOND
     1    25    26    1
     2    26    27    2
     3    26    28   am
     4    28    19    1
     5    19    20   ar
     6    20    21   ar
     7    21     1    1
     8     1     3    1
     9     3     4   ar
    10     4     5   ar
    11     5    12    1
    12    12    14    1
    13    14    15    1
    14    15    16    1
    15     5     6   ar
    16     6     7   ar
    17     7     8   ar
    18     8     9   ar
    19     9    17    1
    20    17    18    3
    21     9    10   ar
    22    10    11   ar
    23    21    22   ar
    24    22    23   ar
    25    23    24   ar
    26    24    30    1
    27    30    31    1
    28    30    32    1
    29    24    19   ar
    30    11     3   ar
    31    16    14    1
    32    10     6   ar
    33    28    29    1
    34     1     2    1
    35    12    13    1
@<TRIPOS>MOLECULE
*****
 32 35 0 0 0
SMALL
GASTEIGER

@<TRIPOS>ATOM
      1 N         143.7395  142.2264  163.8327 N.pl3   1  UNL1       -0.2978
      2 H         144.6729  142.0054  163.6113 H       1  UNL1        0.1536
      3 C         142.9067  143.0171  162.8676 C.ar    1  UNL1        0.1367
      4 C         141.7698  143.8564  163.3704 C.ar    1  UNL1        0.0685
      5 C         140.9371  144.6471  162.4053 C.ar    1  UNL1        0.1344
      6 N         141.2414  144.5984  160.9373 N.ar    1  UNL1       -0.1980
      7 N         140.5999  145.2652  159.7567 N.ar    1  UNL1       -0.1602
      8 C         141.3404  144.8380  158.5242 C.ar    1  UNL1        0.1339
      9 C         142.4396  143.9072  158.9430 C.ar    1  UNL1        0.1250
     10 C         142.3784  143.7591  160.4345 C.ar    1  UNL1        0.1776
     11 N         143.2110  142.9685  161.3996 N.ar    1  UNL1       -0.2109
     12 N         139.8001  145.4864  162.9082 N.pl3   1  UNL1       -0.3196
     13 H         139.6234  146.3676  162.5064 H       1  UNL1        0.1481
     14 C         138.9323  144.9829  164.0234 C.3     1  UNL1        0.0705
     15 C         138.6014  144.9207  165.4851 C.3     1  UNL1        0.0212
     16 C         137.7603  144.1732  164.4932 C.3     1  UNL1        0.0212
     17 C         143.4266  143.2414  158.0307 C.1     1  UNL1        0.1052
     18 N         144.4137  142.5755  157.1183 N.1     1  UNL1       -0.1907
     19 C         141.5758  140.1872  166.4616 C.ar    1  UNL1        0.0475
     20 C         142.1654  140.6410  165.1591 C.ar    1  UNL1        0.0290
     21 C         143.1499  141.7726  165.1352 C.ar    1  UNL1        0.0506
     22 C         143.5447  142.4503  166.4138 C.ar    1  UNL1        0.0144
     23 C         142.9550  141.9964  167.7163 C.ar    1  UNL1       -0.0018
     24 C         141.9707  140.8650  167.7402 C.ar    1  UNL1       -0.0089
     25 C         138.1676  138.1749  166.1700 C.3     1  UNL1        0.0949
     26 C         139.1520  139.3065  166.1461 C.2     1  UNL1        0.2266
     27 O         138.6970  140.6889  165.7830 O.2     1  UNL1       -0.2748
     28 N         140.5915  139.0556  166.4854 N.am    1  UNL1       -0.2841
     29 H         140.8901  138.1483  166.7238 H       1  UNL1        0.1548
     30 C         141.3811  140.4111  169.0426 C.3     1  UNL1        0.0236
     31 C         140.0891  140.9997  169.5266 C.3     1  UNL1        0.0047
     32 C         142.0836  139.3687  169.8612 C.3     1  UNL1        0.0047
@<TRIPOS>BOND
     1    25    26    1
     2    26    27    2
     3    26    28   am
     4    28    19    1
     5    19    20   ar
     6    20    21   ar
     7    21     1    1
     8     1     3    1
     9     3     4   ar
    10     4     5   ar
    11     5    12    1
    12    12    14    1
    13    14    15    1
    14    15    16    1
    15     5     6   ar
    16     6     7   ar
    17     7     8   ar
    18     8     9   ar
    19     9    17    1
    20    17    18    3
    21     9    10   ar
    22    10    11   ar
    23    21    22   ar
    24    22    23   ar
    25    23    24   ar
    26    24    30    1
    27    30    31    1
    28    30    32    1
    29    24    19   ar
    30    11     3   ar
    31    16    14    1
    32    10     6   ar
    33    28    29    1
    34     1     2    1
    35    12    13    1
@<TRIPOS>MOLECULE
*****
 32 35 0 0 0
SMALL
GASTEIGER

@<TRIPOS>ATOM
      1 N         139.5684  138.3839  160.3479 N.pl3   1  UNL1       -0.2978
      2 H         138.9005  137.8832  159.8260 H       1  UNL1        0.1536
      3 C         140.7978  138.9195  159.6755 C.ar    1  UNL1        0.1367
      4 C         141.4880  138.1091  158.6188 C.ar    1  UNL1        0.0685
      5 C         142.7174  138.6446  157.9464 C.ar    1  UNL1        0.1344
      6 N         143.2563  139.9906  158.3308 N.ar    1  UNL1       -0.1980
      7 N         144.4406  140.7732  157.8461 N.ar    1  UNL1       -0.1602
      8 C         144.4822  142.0674  158.6033 C.ar    1  UNL1        0.1339
      9 C         143.3237  142.0846  159.5560 C.ar    1  UNL1        0.1250
     10 C         142.5660  140.8010  159.3875 C.ar    1  UNL1        0.1776
     11 N         141.3367  140.2655  160.0599 N.ar    1  UNL1       -0.2109
     12 N         143.4076  137.8340  156.8897 N.pl3   1  UNL1       -0.3196
     13 H         144.1037  138.2468  156.3290 H       1  UNL1        0.1481
     14 C         143.0372  136.3947  156.6872 C.3     1  UNL1        0.0705
     15 C         143.3224  134.9375  156.9004 C.3     1  UNL1        0.0212
     16 C         142.1105  135.3587  156.1234 C.3     1  UNL1        0.0212
     17 C         142.9827  143.1911  160.5096 C.1     1  UNL1        0.1052
     18 N         142.6417  144.2976  161.4632 N.1     1  UNL1       -0.1907
     19 C         138.4177  140.0629  163.7548 C.ar    1  UNL1        0.0475
     20 C         138.6292  139.8353  162.2874 C.ar    1  UNL1        0.0290
     21 C         139.3569  138.6115  161.8153 C.ar    1  UNL1        0.0506
     22 C         139.8730  137.6152  162.8108 C.ar    1  UNL1        0.0144
     23 C         139.6614  137.8427  164.2784 C.ar    1  UNL1       -0.0018
     24 C         138.9338  139.0665  164.7503 C.ar    1  UNL1       -0.0089
     25 C         137.6679  143.8337  164.7392 C.3     1  UNL1        0.0949
     26 C         138.3956  142.6098  164.2672 C.2     1  UNL1        0.2266
     27 O         139.8287  142.7091  163.8357 O.2     1  UNL1       -0.2748
     28 N         137.6901  141.2867  164.2268 N.am    1  UNL1       -0.2841
     29 H         136.7494  141.2216  164.5100 H       1  UNL1        0.1548
     30 C         138.7223  139.2940  166.2178 C.3     1  UNL1        0.0236
     31 C         137.6514  138.5383  166.9472 C.3     1  UNL1        0.0047
     32 C         139.5816  140.2773  166.9558 C.3     1  UNL1        0.0047
@<TRIPOS>BOND
     1    25    26    1
     2    26    27    2
     3    26    28   am
     4    28    19    1
     5    19    20   ar
     6    20    21   ar
     7    21     1    1
     8     1     3    1
     9     3     4   ar
    10     4     5   ar
    11     5    12    1
    12    12    14    1
    13    14    15    1
    14    15    16    1
    15     5     6   ar
    16     6     7   ar
    17     7     8   ar
    18     8     9   ar
    19     9    17    1
    20    17    18    3
    21     9    10   ar
    22    10    11   ar
    23    21    22   ar
    24    22    23   ar
    25    23    24   ar
    26    24    30    1
    27    30    31    1
    28    30    32    1
    29    24    19   ar
    30    11     3   ar
    31    16    14    1
    32    10     6   ar
    33    28    29    1
    34     1     2    1
    35    12    13    1
@<TRIPOS>MOLECULE
*****
 32 35 0 0 0
SMALL
GASTEIGER

@<TRIPOS>ATOM
      1 N         138.6162  138.6867  160.1861 N.pl3   1  UNL1       -0.2978
      2 H         137.7555  138.6890  159.7081 H       1  UNL1        0.1536
      3 C         139.8963  138.5061  159.4252 C.ar    1  UNL1        0.1367
      4 C         141.2125  138.7393  160.1057 C.ar    1  UNL1        0.0685
      5 C         142.4926  138.5587  159.3448 C.ar    1  UNL1        0.1344
      6 N         142.4563  138.1449  157.9035 N.ar    1  UNL1       -0.1980
      7 N         143.5460  137.8906  156.9045 N.ar    1  UNL1       -0.1602
      8 C         142.9032  137.5003  155.6067 C.ar    1  UNL1        0.1339
      9 C         141.4162  137.5133  155.8035 C.ar    1  UNL1        0.1250
     10 C         141.1400  137.9117  157.2230 C.ar    1  UNL1        0.1776
     11 N         139.8600  138.0923  157.9839 N.ar    1  UNL1       -0.2109
     12 N         143.8089  138.7919  160.0253 N.pl3   1  UNL1       -0.3196
     13 H         144.6461  138.7351  159.5105 H       1  UNL1        0.1481
     14 C         143.8494  139.1117  161.4903 C.3     1  UNL1        0.0705
     15 C         144.1586  140.0691  162.6029 C.3     1  UNL1        0.0212
     16 C         143.6106  138.7081  162.9151 C.3     1  UNL1        0.0212
     17 C         140.3863  137.1855  154.7634 C.1     1  UNL1        0.1052
     18 N         139.3564  136.8576  153.7234 N.1     1  UNL1       -0.1907
     19 C         138.1341  140.2944  163.7824 C.ar    1  UNL1        0.0475
     20 C         138.1028  140.1173  162.2932 C.ar    1  UNL1        0.0290
     21 C         138.6475  138.8637  161.6753 C.ar    1  UNL1        0.0506
     22 C         139.2236  137.7872  162.5466 C.ar    1  UNL1        0.0144
     23 C         139.2549  137.9643  164.0358 C.ar    1  UNL1       -0.0018
     24 C         138.7102  139.2178  164.6537 C.ar    1  UNL1       -0.0089
     25 C         137.8425  144.0708  164.9672 C.3     1  UNL1        0.0949
     26 C         138.3872  142.8172  164.3493 C.2     1  UNL1        0.2266
     27 O         139.7297  142.8328  163.6805 O.2     1  UNL1       -0.2748
     28 N         137.5894  141.5480  164.4002 N.am    1  UNL1       -0.2841
     29 H         136.7082  141.5378  164.8392 H       1  UNL1        0.1548
     30 C         138.7416  139.3948  166.1429 C.3     1  UNL1        0.0236
     31 C         139.7730  140.2847  166.7708 C.3     1  UNL1        0.0047
     32 C         137.7415  138.6821  167.0041 C.3     1  UNL1        0.0047
@<TRIPOS>BOND
     1    25    26    1
     2    26    27    2
     3    26    28   am
     4    28    19    1
     5    19    20   ar
     6    20    21   ar
     7    21     1    1
     8     1     3    1
     9     3     4   ar
    10     4     5   ar
    11     5    12    1
    12    12    14    1
    13    14    15    1
    14    15    16    1
    15     5     6   ar
    16     6     7   ar
    17     7     8   ar
    18     8     9   ar
    19     9    17    1
    20    17    18    3
    21     9    10   ar
    22    10    11   ar
    23    21    22   ar
    24    22    23   ar
    25    23    24   ar
    26    24    30    1
    27    30    31    1
    28    30    32    1
    29    24    19   ar
    30    11     3   ar
    31    16    14    1
    32    10     6   ar
    33    28    29    1
    34     1     2    1
    35    12    13    1
@<TRIPOS>MOLECULE
*****
 32 35 0 0 0
SMALL
GASTEIGER

@<TRIPOS>ATOM
      1 N         138.0736  142.4635  160.8159 N.pl3   1  UNL1       -0.2978
      2 H         137.2371  142.3484  160.3097 H       1  UNL1        0.1536
      3 C         139.1977  143.2684  160.2339 C.ar    1  UNL1        0.1367
      4 C         140.4002  143.5914  161.0703 C.ar    1  UNL1        0.0685
      5 C         141.5244  144.3962  160.4883 C.ar    1  UNL1        0.1344
      6 N         141.4459  144.8780  159.0700 N.ar    1  UNL1       -0.1980
      7 N         142.3916  145.6843  158.2301 N.ar    1  UNL1       -0.1602
      8 C         141.7736  145.8597  156.8747 C.ar    1  UNL1        0.1339
      9 C         140.4458  145.1617  156.8768 C.ar    1  UNL1        0.1250
     10 C         140.2433  144.5550  158.2336 C.ar    1  UNL1        0.1776
     11 N         139.1192  143.7502  158.8156 N.ar    1  UNL1       -0.2109
     12 N         142.7270  144.7192  161.3248 N.pl3   1  UNL1       -0.3196
     13 H         143.5932  144.8989  160.8928 H       1  UNL1        0.1481
     14 C         142.6096  144.7684  162.8193 C.3     1  UNL1        0.0705
     15 C         143.2159  145.0542  164.1613 C.3     1  UNL1        0.0212
     16 C         141.8002  144.5678  164.0661 C.3     1  UNL1        0.0212
     17 C         139.4887  145.0841  155.7245 C.1     1  UNL1        0.1052
     18 N         138.5315  145.0065  154.5722 N.1     1  UNL1       -0.1907
     19 C         138.9228  139.8139  163.6459 C.ar    1  UNL1        0.0475
     20 C         138.7724  140.4433  162.2927 C.ar    1  UNL1        0.0290
     21 C         138.2241  141.8341  162.1691 C.ar    1  UNL1        0.0506
     22 C         137.8263  142.5954  163.3988 C.ar    1  UNL1        0.0144
     23 C         137.9767  141.9660  164.7521 C.ar    1  UNL1       -0.0018
     24 C         138.5250  140.5753  164.8756 C.ar    1  UNL1       -0.0089
     25 C         141.4570  136.8235  164.2666 C.3     1  UNL1        0.0949
     26 C         140.9087  138.2142  164.1431 C.2     1  UNL1        0.2266
     27 O         141.7980  139.3959  164.3933 O.2     1  UNL1       -0.2748
     28 N         139.4711  138.4232  163.7694 N.am    1  UNL1       -0.2841
     29 H         138.8875  137.6476  163.6052 H       1  UNL1        0.1548
     30 C         138.6755  139.9459  166.2288 C.3     1  UNL1        0.0236
     31 C         139.7182  140.4533  167.1802 C.3     1  UNL1        0.0047
     32 C         137.7832  138.8090  166.6306 C.3     1  UNL1        0.0047
@<TRIPOS>BOND
     1    25    26    1
     2    26    27    2
     3    26    28   am
     4    28    19    1
     5    19    20   ar
     6    20    21   ar
     7    21     1    1
     8     1     3    1
     9     3     4   ar
    10     4     5   ar
    11     5    12    1
    12    12    14    1
    13    14    15    1
    14    15    16    1
    15     5     6   ar
    16     6     7   ar
    17     7     8   ar
    18     8     9   ar
    19     9    17    1
    20    17    18    3
    21     9    10   ar
    22    10    11   ar
    23    21    22   ar
    24    22    23   ar
    25    23    24   ar
    26    24    30    1
    27    30    31    1
    28    30    32    1
    29    24    19   ar
    30    11     3   ar
    31    16    14    1
    32    10     6   ar
    33    28    29    1
    34     1     2    1
    35    12    13    1
@<TRIPOS>MOLECULE
*****
 32 35 0 0 0
SMALL
GASTEIGER

@<TRIPOS>ATOM
      1 N         139.7202  138.2232  159.8022 N.pl3   1  UNL1       -0.2978
      2 H         139.0532  137.7131  159.2883 H       1  UNL1        0.1536
      3 C         140.9683  138.7151  159.1311 C.ar    1  UNL1        0.1367
      4 C         141.6522  137.8640  158.1027 C.ar    1  UNL1        0.0685
      5 C         142.9002  138.3559  157.4315 C.ar    1  UNL1        0.1344
      6 N         143.4643  139.6991  157.7888 N.ar    1  UNL1       -0.1980
      7 N         144.6706  140.4437  157.2987 N.ar    1  UNL1       -0.1602
      8 C         144.7323  141.7551  158.0242 C.ar    1  UNL1        0.1339
      9 C         143.5640  141.8210  158.9627 C.ar    1  UNL1        0.1250
     10 C         142.7803  140.5503  158.8173 C.ar    1  UNL1        0.1776
     11 N         141.5323  140.0583  159.4884 N.ar    1  UNL1       -0.2109
     12 N         143.5841  137.5046  156.4031 N.pl3   1  UNL1       -0.3196
     13 H         144.2184  137.9119  155.7697 H       1  UNL1        0.1481
     14 C         143.3017  136.0329  156.3397 C.3     1  UNL1        0.0705
     15 C         143.7056  134.6187  156.6346 C.3     1  UNL1        0.0212
     16 C         142.4085  134.8978  155.9350 C.3     1  UNL1        0.0212
     17 C         143.2369  142.9580  159.8848 C.1     1  UNL1        0.1052
     18 N         142.9097  144.0950  160.8069 N.1     1  UNL1       -0.1907
     19 C         140.2372  138.3069  163.7362 C.ar    1  UNL1        0.0475
     20 C         140.4690  138.0216  162.2820 C.ar    1  UNL1        0.0290
     21 C         139.4885  138.5085  161.2565 C.ar    1  UNL1        0.0506
     22 C         138.2762  139.2808  161.6854 C.ar    1  UNL1        0.0144
     23 C         138.0444  139.5662  163.1397 C.ar    1  UNL1       -0.0018
     24 C         139.0249  139.0792  164.1651 C.ar    1  UNL1       -0.0089
     25 C         143.3651  138.1915  166.1762 C.3     1  UNL1        0.0949
     26 C         142.3846  138.6785  165.1508 C.2     1  UNL1        0.2266
     27 O         142.5708  140.0240  164.5146 O.2     1  UNL1       -0.2748
     28 N         141.2178  137.8199  164.7616 N.am    1  UNL1       -0.2841
     29 H         141.0955  136.9368  165.1792 H       1  UNL1        0.1548
     30 C         138.7932  139.3645  165.6193 C.3     1  UNL1        0.0236
     31 C         137.9801  138.4160  166.4494 C.3     1  UNL1        0.0047
     32 C         139.3745  140.5984  166.2435 C.3     1  UNL1        0.0047
@<TRIPOS>BOND
     1    25    26    1
     2    26    27    2
     3    26    28   am
     4    28    19    1
     5    19    20   ar
     6    20    21   ar
     7    21     1    1
     8     1     3    1
     9     3     4   ar
    10     4     5   ar
    11     5    12    1
    12    12    14    1
    13    14    15    1
    14    15    16    1
    15     5     6   ar
    16     6     7   ar
    17     7     8   ar
    18     8     9   ar
    19     9    17    1
    20    17    18    3
    21     9    10   ar
    22    10    11   ar
    23    21    22   ar
    24    22    23   ar
    25    23    24   ar
    26    24    30    1
    27    30    31    1
    28    30    32    1
    29    24    19   ar
    30    11     3   ar
    31    16    14    1
    32    10     6   ar
    33    28    29    1
    34     1     2    1
    35    12    13    1
@<TRIPOS>MOLECULE
*****
 32 35 0 0 0
SMALL
GASTEIGER

@<TRIPOS>ATOM
      1 N         143.7252  138.4027  162.2085 N.pl3   1  UNL1       -0.2978
      2 H         144.3774  137.6671  162.2608 H       1  UNL1        0.1536
      3 C         143.9601  139.5483  161.2690 C.ar    1  UNL1        0.1367
      4 C         144.2979  140.9055  161.8109 C.ar    1  UNL1        0.0685
      5 C         144.5328  142.0511  160.8714 C.ar    1  UNL1        0.1344
      6 N         144.4300  141.8392  159.3901 N.ar    1  UNL1       -0.1980
      7 N         144.6069  142.7714  158.2282 N.ar    1  UNL1       -0.1602
      8 C         144.3785  141.9901  156.9683 C.ar    1  UNL1        0.1339
      9 C         144.0604  140.5752  157.3514 C.ar    1  UNL1        0.1250
     10 C         144.0922  140.4819  158.8482 C.ar    1  UNL1        0.1776
     11 N         143.8573  139.3364  159.7877 N.ar    1  UNL1       -0.2109
     12 N         144.8706  143.4084  161.4134 N.pl3   1  UNL1       -0.3196
     13 H         145.4921  143.9935  160.9231 H       1  UNL1        0.1481
     14 C         144.2613  143.8740  162.7026 C.3     1  UNL1        0.0705
     15 C         144.0861  143.7255  164.1849 C.3     1  UNL1        0.0212
     16 C         143.3811  144.8290  163.4532 C.3     1  UNL1        0.0212
     17 C         143.7627  139.4509  156.4041 C.1     1  UNL1        0.1052
     18 N         143.4651  138.3267  155.4567 N.1     1  UNL1       -0.1907
     19 C         141.2932  138.9785  165.2915 C.ar    1  UNL1        0.0475
     20 C         142.5220  139.0032  164.4317 C.ar    1  UNL1        0.0290
     21 C         142.4963  138.3779  163.0684 C.ar    1  UNL1        0.0506
     22 C         141.2417  137.7279  162.5650 C.ar    1  UNL1        0.0144
     23 C         140.0128  137.7031  163.4249 C.ar    1  UNL1       -0.0018
     24 C         140.0386  138.3284  164.7881 C.ar    1  UNL1       -0.0089
     25 C         142.4774  139.9352  168.9566 C.3     1  UNL1        0.0949
     26 C         142.4516  139.3099  167.5933 C.2     1  UNL1        0.2266
     27 O         143.5583  138.3908  167.1687 O.2     1  UNL1       -0.2748
     28 N         141.3190  139.6037  166.6547 N.am    1  UNL1       -0.2841
     29 H         140.5926  140.2070  166.9334 H       1  UNL1        0.1548
     30 C         138.8098  138.3036  165.6479 C.3     1  UNL1        0.0236
     31 C         138.2895  136.9992  166.1752 C.3     1  UNL1        0.0047
     32 C         138.1012  139.5832  165.9806 C.3     1  UNL1        0.0047
@<TRIPOS>BOND
     1    25    26    1
     2    26    27    2
     3    26    28   am
     4    28    19    1
     5    19    20   ar
     6    20    21   ar
     7    21     1    1
     8     1     3    1
     9     3     4   ar
    10     4     5   ar
    11     5    12    1
    12    12    14    1
    13    14    15    1
    14    15    16    1
    15     5     6   ar
    16     6     7   ar
    17     7     8   ar
    18     8     9   ar
    19     9    17    1
    20    17    18    3
    21     9    10   ar
    22    10    11   ar
    23    21    22   ar
    24    22    23   ar
    25    23    24   ar
    26    24    30    1
    27    30    31    1
    28    30    32    1
    29    24    19   ar
    30    11     3   ar
    31    16    14    1
    32    10     6   ar
    33    28    29    1
    34     1     2    1
    35    12    13    1
@<TRIPOS>MOLECULE
*****
 32 35 0 0 0
SMALL
GASTEIGER

@<TRIPOS>ATOM
      1 N         139.7382  143.1394  165.5145 N.pl3   1  UNL1       -0.2978
      2 H         139.0004  143.5868  165.9886 H       1  UNL1        0.1536
      3 C         140.5393  142.0766  166.2066 C.ar    1  UNL1        0.1367
      4 C         141.2994  141.0658  165.4001 C.ar    1  UNL1        0.0685
      5 C         142.1005  140.0031  166.0922 C.ar    1  UNL1        0.1344
      6 N         142.1415  139.9513  167.5907 N.ar    1  UNL1       -0.1980
      7 N         142.8387  139.0269  168.5443 N.ar    1  UNL1       -0.1602
      8 C         142.5096  139.4665  169.9401 C.ar    1  UNL1        0.1339
      9 C         141.6089  140.6626  169.8492 C.ar    1  UNL1        0.1250
     10 C         141.3814  140.9622  168.3972 C.ar    1  UNL1        0.1776
     11 N         140.5803  142.0249  167.7051 N.ar    1  UNL1       -0.2109
     12 N         142.8606  138.9922  165.2856 N.pl3   1  UNL1       -0.3196
     13 H         143.8249  138.8654  165.4379 H       1  UNL1        0.1481
     14 C         142.1513  138.1747  164.2471 C.3     1  UNL1        0.0705
     15 C         141.9365  137.8035  162.8097 C.3     1  UNL1        0.0212
     16 C         141.1375  137.1298  163.8857 C.3     1  UNL1        0.0212
     17 C         141.0362  141.4251  171.0071 C.1     1  UNL1        0.1052
     18 N         140.4636  142.1876  172.1649 N.1     1  UNL1       -0.1907
     19 C         139.5188  143.4148  161.5615 C.ar    1  UNL1        0.0475
     20 C         139.1957  143.0338  162.9758 C.ar    1  UNL1        0.0290
     21 C         140.0613  143.5204  164.1002 C.ar    1  UNL1        0.0506
     22 C         141.2499  144.3882  163.8101 C.ar    1  UNL1        0.0144
     23 C         141.5730  144.7692  162.3956 C.ar    1  UNL1       -0.0018
     24 C         140.7075  144.2826  161.2714 C.ar    1  UNL1       -0.0089
     25 C         138.1647  141.2006  158.5592 C.3     1  UNL1        0.0949
     26 C         139.0303  141.6873  159.6834 C.2     1  UNL1        0.2266
     27 O         140.2728  140.9332  160.0539 O.2     1  UNL1       -0.2748
     28 N         138.6532  142.9281  160.4372 N.am    1  UNL1       -0.2841
     29 H         137.8377  143.4231  160.1941 H       1  UNL1        0.1548
     30 C         141.0306  144.6636  159.8571 C.3     1  UNL1        0.0236
     31 C         140.2577  145.7561  159.1794 C.3     1  UNL1        0.0047
     32 C         142.1266  143.9522  159.1203 C.3     1  UNL1        0.0047
@<TRIPOS>BOND
     1    25    26    1
     2    26    27    2
     3    26    28   am
     4    28    19    1
     5    19    20   ar
     6    20    21   ar
     7    21     1    1
     8     1     3    1
     9     3     4   ar
    10     4     5   ar
    11     5    12    1
    12    12    14    1
    13    14    15    1
    14    15    16    1
    15     5     6   ar
    16     6     7   ar
    17     7     8   ar
    18     8     9   ar
    19     9    17    1
    20    17    18    3
    21     9    10   ar
    22    10    11   ar
    23    21    22   ar
    24    22    23   ar
    25    23    24   ar
    26    24    30    1
    27    30    31    1
    28    30    32    1
    29    24    19   ar
    30    11     3   ar
    31    16    14    1
    32    10     6   ar
    33    28    29    1
    34     1     2    1
    35    12    13    1
