@<TRIPOS>MOLECULE
*****
 26 29 0 0 0
SMALL
GASTEIGER

@<TRIPOS>ATOM
      1 C         140.9701  138.5050  162.3159 C.ar    1  UNL1        0.1917
      2 N         139.7757  137.6269  162.0872 N.ar    1  UNL1       -0.1268
      3 N         138.9642  137.6105  163.3486 N.ar    1  UNL1       -0.1316
      4 C         139.6570  138.4786  164.3569 C.ar    1  UNL1        0.1615
      5 N         140.8968  139.0314  163.7186 N.ar    1  UNL1       -0.2940
      6 C         141.7987  139.9426  164.4971 C.3     1  UNL1        0.1302
      7 C         141.4608  140.3011  165.9140 C.3     1  UNL1        0.1186
      8 N         140.2210  139.7483  166.5522 N.am    1  UNL1       -0.2688
      9 C         139.8832  140.1068  167.9690 C.2     1  UNL1        0.2515
     10 O         138.6434  139.5539  168.6073 O.2     1  UNL1       -0.2698
     11 C         139.3191  138.8370  165.7736 C.3     1  UNL1        0.1343
     12 C         138.0794  138.2842  166.4119 C.3     1  UNL1        0.0298
     13 C         140.7851  141.0180  168.7475 C.ar    1  UNL1        0.0811
     14 C         140.3892  142.4461  168.9797 C.ar    1  UNL1        0.0091
     15 C         141.2911  143.3574  169.7583 C.ar    1  UNL1        0.0299
     16 C         142.5889  142.8406  170.3046 C.ar    1  UNL1        0.1424
     17 F         143.4909  143.7518  171.0832 F       1  UNL1       -0.2041
     18 C         142.9848  141.4125  170.0725 C.ar    1  UNL1        0.0594
     19 C         142.0830  140.5012  169.2940 C.ar    1  UNL1        0.1467
     20 F         142.4789  139.0732  169.0618 F       1  UNL1       -0.2039
     21 C         143.6017  140.5867  158.2389 C.3     1  UNL1        0.0744
     22 C         143.2582  139.7611  159.4432 C.ar    1  UNL1        0.1481
     23 N         144.1582  138.7684  160.1175 N.ar    1  UNL1       -0.1929
     24 S         143.4105  138.1770  161.2758 S.2     1  UNL1        0.0369
     25 C         142.0486  138.8042  161.3172 C.ar    1  UNL1        0.1652
     26 N         141.9544  139.7832  160.1847 N.ar    1  UNL1       -0.2190
@<TRIPOS>BOND
     1    21    22    1
     2    22    23   ar
     3    23    24   ar
     4    24    25   ar
     5    25     1    1
     6     1     2   ar
     7     2     3   ar
     8     3     4   ar
     9     4     5   ar
    10     5     6    1
    11     6     7    1
    12     7     8    1
    13     8     9   am
    14     9    10    2
    15     9    13    1
    16    13    14   ar
    17    14    15   ar
    18    15    16   ar
    19    16    17    1
    20    16    18   ar
    21    18    19   ar
    22    19    20    1
    23     8    11    1
    24    11    12    1
    25    25    26   ar
    26    26    22   ar
    27     5     1   ar
    28    19    13   ar
    29    11     4    1
@<TRIPOS>MOLECULE
*****
 26 29 0 0 0
SMALL
GASTEIGER

@<TRIPOS>ATOM
      1 C         138.8373  142.1675  162.0357 C.ar    1  UNL1        0.1917
      2 N         137.8627  141.0741  161.7123 N.ar    1  UNL1       -0.1268
      3 N         137.6835  140.2342  162.9420 N.ar    1  UNL1       -0.1316
      4 C         138.5473  140.8084  164.0256 C.ar    1  UNL1        0.1615
      5 N         139.2605  142.0033  163.4654 N.ar    1  UNL1       -0.2940
      6 C         140.2030  142.7874  164.3296 C.3     1  UNL1        0.1302
      7 C         140.4324  142.3767  165.7539 C.3     1  UNL1        0.1186
      8 N         139.7193  141.1818  166.3141 N.am    1  UNL1       -0.2688
      9 C         139.9487  140.7711  167.7384 C.2     1  UNL1        0.2515
     10 O         139.2355  139.5762  168.2985 O.2     1  UNL1       -0.2698
     11 C         138.7767  140.3977  165.4498 C.3     1  UNL1        0.1343
     12 C         138.0636  139.2028  166.0100 C.3     1  UNL1        0.0298
     13 C         140.8912  141.5552  168.6025 C.ar    1  UNL1        0.0811
     14 C         140.4122  142.7904  169.3059 C.ar    1  UNL1        0.0091
     15 C         141.3548  143.5746  170.1701 C.ar    1  UNL1        0.0299
     16 C         142.7763  143.1235  170.3308 C.ar    1  UNL1        0.1424
     17 F         143.7189  143.9076  171.1950 F       1  UNL1       -0.2041
     18 C         143.2552  141.8882  169.6274 C.ar    1  UNL1        0.0594
     19 C         142.3127  141.1041  168.7633 C.ar    1  UNL1        0.1467
     20 F         142.7917  139.8689  168.0598 F       1  UNL1       -0.2039
     21 C         140.3493  144.6865  157.6484 C.3     1  UNL1        0.0744
     22 C         140.0014  144.3951  159.0781 C.ar    1  UNL1        0.1481
     23 N         140.0554  145.3718  160.2152 N.ar    1  UNL1       -0.1929
     24 S         139.6258  144.6562  161.4617 S.2     1  UNL1        0.0369
     25 C         139.3065  143.2373  161.0947 C.ar    1  UNL1        0.1652
     26 N         139.5386  143.0759  159.6216 N.ar    1  UNL1       -0.2190
@<TRIPOS>BOND
     1    21    22    1
     2    22    23   ar
     3    23    24   ar
     4    24    25   ar
     5    25     1    1
     6     1     2   ar
     7     2     3   ar
     8     3     4   ar
     9     4     5   ar
    10     5     6    1
    11     6     7    1
    12     7     8    1
    13     8     9   am
    14     9    10    2
    15     9    13    1
    16    13    14   ar
    17    14    15   ar
    18    15    16   ar
    19    16    17    1
    20    16    18   ar
    21    18    19   ar
    22    19    20    1
    23     8    11    1
    24    11    12    1
    25    25    26   ar
    26    26    22   ar
    27     5     1   ar
    28    19    13   ar
    29    11     4    1
@<TRIPOS>MOLECULE
*****
 26 29 0 0 0
SMALL
GASTEIGER

@<TRIPOS>ATOM
      1 C         143.2392  140.8877  162.0773 C.ar    1  UNL1        0.1917
      2 N         144.1253  139.7136  161.7835 N.ar    1  UNL1       -0.1268
      3 N         144.3293  138.9556  163.0617 N.ar    1  UNL1       -0.1316
      4 C         143.5694  139.6612  164.1455 C.ar    1  UNL1        0.1615
      5 N         142.8956  140.8554  163.5371 N.ar    1  UNL1       -0.2940
      6 C         142.0563  141.7589  164.3909 C.3     1  UNL1        0.1302
      7 C         141.8907  141.4684  165.8532 C.3     1  UNL1        0.1186
      8 N         142.5644  140.2743  166.4616 N.am    1  UNL1       -0.2688
      9 C         142.3989  139.9837  167.9238 C.2     1  UNL1        0.2515
     10 O         143.0726  138.7896  168.5322 O.2     1  UNL1       -0.2698
     11 C         143.4038  139.3707  165.6077 C.3     1  UNL1        0.1343
     12 C         144.0775  138.1766  166.2161 C.3     1  UNL1        0.0298
     13 C         141.5596  140.8873  168.7776 C.ar    1  UNL1        0.0811
     14 C         140.1794  140.4647  169.1858 C.ar    1  UNL1        0.0091
     15 C         139.3401  141.3684  170.0397 C.ar    1  UNL1        0.0299
     16 C         139.8810  142.6946  170.4853 C.ar    1  UNL1        0.1424
     17 F         139.0416  143.5982  171.3392 F       1  UNL1       -0.2041
     18 C         141.2611  143.1172  170.0772 C.ar    1  UNL1        0.0594
     19 C         142.1004  142.2136  169.2233 C.ar    1  UNL1        0.1467
     20 F         143.4805  142.6362  168.8152 F       1  UNL1       -0.2039
     21 C         140.1568  143.8081  158.9387 C.3     1  UNL1        0.0744
     22 C         141.3609  143.2564  159.6428 C.ar    1  UNL1        0.1481
     23 N         142.7742  143.7304  159.4757 N.ar    1  UNL1       -0.1929
     24 S         143.6499  142.9008  160.3673 S.2     1  UNL1        0.0369
     25 C         142.7778  141.9141  161.0855 C.ar    1  UNL1        0.1652
     26 N         141.3631  142.1338  160.6378 N.ar    1  UNL1       -0.2190
@<TRIPOS>BOND
     1    21    22    1
     2    22    23   ar
     3    23    24   ar
     4    24    25   ar
     5    25     1    1
     6     1     2   ar
     7     2     3   ar
     8     3     4   ar
     9     4     5   ar
    10     5     6    1
    11     6     7    1
    12     7     8    1
    13     8     9   am
    14     9    10    2
    15     9    13    1
    16    13    14   ar
    17    14    15   ar
    18    15    16   ar
    19    16    17    1
    20    16    18   ar
    21    18    19   ar
    22    19    20    1
    23     8    11    1
    24    11    12    1
    25    25    26   ar
    26    26    22   ar
    27     5     1   ar
    28    19    13   ar
    29    11     4    1
@<TRIPOS>MOLECULE
*****
 26 29 0 0 0
SMALL
GASTEIGER

@<TRIPOS>ATOM
      1 C         142.6743  143.4093  160.7564 C.ar    1  UNL1        0.1917
      2 N         144.1627  143.3207  160.5927 N.ar    1  UNL1       -0.1268
      3 N         144.6745  142.2919  161.5569 N.ar    1  UNL1       -0.1316
      4 C         143.5025  141.7447  162.3164 C.ar    1  UNL1        0.1615
      5 N         142.2662  142.4353  161.8217 N.ar    1  UNL1       -0.2940
      6 C         140.9287  142.0881  162.4052 C.3     1  UNL1        0.1302
      7 C         140.8274  141.0502  163.4834 C.3     1  UNL1        0.1186
      8 N         142.0636  140.3595  163.9781 N.am    1  UNL1       -0.2688
      9 C         141.9624  139.3216  165.0563 C.2     1  UNL1        0.2515
     10 O         143.1986  138.6310  165.5510 O.2     1  UNL1       -0.2698
     11 C         143.4012  140.7068  163.3946 C.3     1  UNL1        0.1343
     12 C         144.6374  140.0162  163.8893 C.3     1  UNL1        0.0298
     13 C         140.6249  138.9744  165.6397 C.ar    1  UNL1        0.0811
     14 C         140.1098  139.7233  166.8330 C.ar    1  UNL1        0.0091
     15 C         138.7723  139.3760  167.4164 C.ar    1  UNL1        0.0299
     16 C         137.9498  138.2799  166.8066 C.ar    1  UNL1        0.1424
     17 F         136.6122  137.9326  167.3901 F       1  UNL1       -0.2041
     18 C         138.4648  137.5309  165.6134 C.ar    1  UNL1        0.0594
     19 C         139.8023  137.8782  165.0299 C.ar    1  UNL1        0.1467
     20 F         140.3173  137.1292  163.8367 F       1  UNL1       -0.2039
     21 C         140.4256  146.1160  156.8197 C.3     1  UNL1        0.0744
     22 C         140.7217  145.5574  158.1799 C.ar    1  UNL1        0.1481
     23 N         139.9603  145.8513  159.4385 N.ar    1  UNL1       -0.1929
     24 S         140.5992  145.0824  160.5569 S.2     1  UNL1        0.0369
     25 C         141.7552  144.3133  159.9895 C.ar    1  UNL1        0.1652
     26 N         141.8310  144.6069  158.5204 N.ar    1  UNL1       -0.2190
@<TRIPOS>BOND
     1    21    22    1
     2    22    23   ar
     3    23    24   ar
     4    24    25   ar
     5    25     1    1
     6     1     2   ar
     7     2     3   ar
     8     3     4   ar
     9     4     5   ar
    10     5     6    1
    11     6     7    1
    12     7     8    1
    13     8     9   am
    14     9    10    2
    15     9    13    1
    16    13    14   ar
    17    14    15   ar
    18    15    16   ar
    19    16    17    1
    20    16    18   ar
    21    18    19   ar
    22    19    20    1
    23     8    11    1
    24    11    12    1
    25    25    26   ar
    26    26    22   ar
    27     5     1   ar
    28    19    13   ar
    29    11     4    1
@<TRIPOS>MOLECULE
*****
 26 29 0 0 0
SMALL
GASTEIGER

@<TRIPOS>ATOM
      1 C         141.8705  143.4345  161.3058 C.ar    1  UNL1        0.1917
      2 N         143.2250  144.0139  161.0234 N.ar    1  UNL1       -0.1268
      3 N         143.9971  144.0354  162.3092 N.ar    1  UNL1       -0.1316
      4 C         143.1199  143.4694  163.3863 C.ar    1  UNL1        0.1615
      5 N         141.8056  143.0980  162.7662 N.ar    1  UNL1       -0.2940
      6 C         140.7194  142.5015  163.6113 C.3     1  UNL1        0.1302
      7 C         140.9476  142.2762  165.0767 C.3     1  UNL1        0.1186
      8 N         142.2620  142.6476  165.6969 N.am    1  UNL1       -0.2688
      9 C         142.4902  142.4224  167.1622 C.2     1  UNL1        0.2515
     10 O         143.8046  142.7938  167.7823 O.2     1  UNL1       -0.2698
     11 C         143.3481  143.2442  164.8516 C.3     1  UNL1        0.1343
     12 C         144.6625  143.6156  165.4717 C.3     1  UNL1        0.0298
     13 C         141.4041  141.8258  168.0073 C.ar    1  UNL1        0.0811
     14 C         140.7125  142.6640  169.0414 C.ar    1  UNL1        0.0091
     15 C         139.6264  142.0674  169.8866 C.ar    1  UNL1        0.0299
     16 C         139.2318  140.6326  169.6977 C.ar    1  UNL1        0.1424
     17 F         138.1456  140.0359  170.5429 F       1  UNL1       -0.2041
     18 C         139.9233  139.7944  168.6637 C.ar    1  UNL1        0.0594
     19 C         141.0094  140.3910  167.8185 C.ar    1  UNL1        0.1467
     20 F         141.7010  139.5528  166.7845 F       1  UNL1       -0.2039
     21 C         138.1086  141.1692  158.3737 C.3     1  UNL1        0.0744
     22 C         139.0444  142.1866  158.9561 C.ar    1  UNL1        0.1481
     23 N         139.1265  143.6332  158.5678 N.ar    1  UNL1       -0.1929
     24 S         140.1952  144.2768  159.4008 S.2     1  UNL1        0.0369
     25 C         140.7735  143.2279  160.3039 C.ar    1  UNL1        0.1652
     26 N         140.0623  141.9362  160.0291 N.ar    1  UNL1       -0.2190
@<TRIPOS>BOND
     1    21    22    1
     2    22    23   ar
     3    23    24   ar
     4    24    25   ar
     5    25     1    1
     6     1     2   ar
     7     2     3   ar
     8     3     4   ar
     9     4     5   ar
    10     5     6    1
    11     6     7    1
    12     7     8    1
    13     8     9   am
    14     9    10    2
    15     9    13    1
    16    13    14   ar
    17    14    15   ar
    18    15    16   ar
    19    16    17    1
    20    16    18   ar
    21    18    19   ar
    22    19    20    1
    23     8    11    1
    24    11    12    1
    25    25    26   ar
    26    26    22   ar
    27     5     1   ar
    28    19    13   ar
    29    11     4    1
@<TRIPOS>MOLECULE
*****
 26 29 0 0 0
SMALL
GASTEIGER

@<TRIPOS>ATOM
      1 C         142.0349  141.7144  161.4954 C.ar    1  UNL1        0.1917
      2 N         142.9889  140.6674  161.0017 N.ar    1  UNL1       -0.1268
      3 N         143.4794  139.8911  162.1877 N.ar    1  UNL1       -0.1316
      4 C         142.8286  140.4582  163.4144 C.ar    1  UNL1        0.1615
      5 N         141.9359  141.5852  162.9866 N.ar    1  UNL1       -0.2940
      6 C         141.1481  142.3480  164.0100 C.3     1  UNL1        0.1302
      7 C         141.2531  141.9839  165.4614 C.3     1  UNL1        0.1186
      8 N         142.1458  140.8570  165.8893 N.am    1  UNL1       -0.2688
      9 C         142.2508  140.4929  167.3406 C.2     1  UNL1        0.2515
     10 O         143.1435  139.3660  167.7685 O.2     1  UNL1       -0.2698
     11 C         142.9336  140.0942  164.8658 C.3     1  UNL1        0.1343
     12 C         143.8263  138.9672  165.2936 C.3     1  UNL1        0.0298
     13 C         141.4630  141.2557  168.3641 C.ar    1  UNL1        0.0811
     14 C         142.0017  142.5404  168.9204 C.ar    1  UNL1        0.0091
     15 C         141.2139  143.3032  169.9439 C.ar    1  UNL1        0.0299
     16 C         139.8875  142.7814  170.4110 C.ar    1  UNL1        0.1424
     17 F         139.0996  143.5443  171.4345 F       1  UNL1       -0.2041
     18 C         139.3488  141.4968  169.8546 C.ar    1  UNL1        0.0594
     19 C         140.1365  140.7340  168.8312 C.ar    1  UNL1        0.1467
     20 F         139.5978  139.4493  168.2748 F       1  UNL1       -0.2039
     21 C         141.0274  145.6718  158.1481 C.3     1  UNL1        0.0744
     22 C         140.8446  144.5341  159.1084 C.ar    1  UNL1        0.1481
     23 N         139.5326  143.9758  159.5743 N.ar    1  UNL1       -0.1929
     24 S         139.8189  142.8515  160.5253 S.2     1  UNL1        0.0369
     25 C         141.3077  142.7151  160.6470 C.ar    1  UNL1        0.1652
     26 N         141.9416  143.7549  159.7713 N.ar    1  UNL1       -0.2190
@<TRIPOS>BOND
     1    21    22    1
     2    22    23   ar
     3    23    24   ar
     4    24    25   ar
     5    25     1    1
     6     1     2   ar
     7     2     3   ar
     8     3     4   ar
     9     4     5   ar
    10     5     6    1
    11     6     7    1
    12     7     8    1
    13     8     9   am
    14     9    10    2
    15     9    13    1
    16    13    14   ar
    17    14    15   ar
    18    15    16   ar
    19    16    17    1
    20    16    18   ar
    21    18    19   ar
    22    19    20    1
    23     8    11    1
    24    11    12    1
    25    25    26   ar
    26    26    22   ar
    27     5     1   ar
    28    19    13   ar
    29    11     4    1
@<TRIPOS>MOLECULE
*****
 26 29 0 0 0
SMALL
GASTEIGER

@<TRIPOS>ATOM
      1 C         142.8508  143.3920  158.7415 C.ar    1  UNL1        0.1917
      2 N         142.6178  144.7771  158.2151 N.ar    1  UNL1       -0.1268
      3 N         141.7359  145.5008  159.1890 N.ar    1  UNL1       -0.1316
      4 C         141.4239  144.5630  160.3173 C.ar    1  UNL1        0.1615
      5 N         142.1130  143.2596  160.0408 N.ar    1  UNL1       -0.2940
      6 C         141.9795  142.1207  161.0077 C.3     1  UNL1        0.1302
      7 C         141.1569  142.2851  162.2513 C.3     1  UNL1        0.1186
      8 N         140.4679  143.5884  162.5279 N.am    1  UNL1       -0.2688
      9 C         139.6454  143.7529  163.7714 C.2     1  UNL1        0.2515
     10 O         138.9563  145.0562  164.0479 O.2     1  UNL1       -0.2698
     11 C         140.6014  144.7274  161.5608 C.3     1  UNL1        0.1343
     12 C         139.9123  146.0307  161.8374 C.3     1  UNL1        0.0298
     13 C         139.5119  142.6140  164.7383 C.ar    1  UNL1        0.0811
     14 C         140.4144  142.5354  165.9338 C.ar    1  UNL1        0.0091
     15 C         140.2809  141.3964  166.9008 C.ar    1  UNL1        0.0299
     16 C         139.2449  140.3361  166.6722 C.ar    1  UNL1        0.1424
     17 F         139.1114  139.1971  167.6392 F       1  UNL1       -0.2041
     18 C         138.3424  140.4146  165.4767 C.ar    1  UNL1        0.0594
     19 C         138.4759  141.5535  164.5097 C.ar    1  UNL1        0.1467
     20 F         137.5734  141.6320  163.3142 F       1  UNL1       -0.2039
     21 C         146.2844  140.9459  155.5622 C.3     1  UNL1        0.0744
     22 C         145.2550  141.2020  156.6227 C.ar    1  UNL1        0.1481
     23 N         144.6404  140.1707  157.5221 N.ar    1  UNL1       -0.1929
     24 S         143.6649  140.8657  158.4254 S.2     1  UNL1        0.0369
     25 C         143.6767  142.3263  158.0841 C.ar    1  UNL1        0.1652
     26 N         144.6594  142.5341  156.9700 N.ar    1  UNL1       -0.2190
@<TRIPOS>BOND
     1    21    22    1
     2    22    23   ar
     3    23    24   ar
     4    24    25   ar
     5    25     1    1
     6     1     2   ar
     7     2     3   ar
     8     3     4   ar
     9     4     5   ar
    10     5     6    1
    11     6     7    1
    12     7     8    1
    13     8     9   am
    14     9    10    2
    15     9    13    1
    16    13    14   ar
    17    14    15   ar
    18    15    16   ar
    19    16    17    1
    20    16    18   ar
    21    18    19   ar
    22    19    20    1
    23     8    11    1
    24    11    12    1
    25    25    26   ar
    26    26    22   ar
    27     5     1   ar
    28    19    13   ar
    29    11     4    1
@<TRIPOS>MOLECULE
*****
 26 29 0 0 0
SMALL
GASTEIGER

@<TRIPOS>ATOM
      1 C         141.8328  141.6730  161.4598 C.ar    1  UNL1        0.1917
      2 N         142.9513  142.5388  160.9606 N.ar    1  UNL1       -0.1268
      3 N         143.7126  143.0442  162.1502 N.ar    1  UNL1       -0.1316
      4 C         143.0646  142.4906  163.3846 C.ar    1  UNL1        0.1615
      5 N         141.9028  141.6432  162.9579 N.ar    1  UNL1       -0.2940
      6 C         141.0587  140.9539  163.9886 C.3     1  UNL1        0.1302
      7 C         141.3764  141.1120  165.4461 C.3     1  UNL1        0.1186
      8 N         142.5382  141.9595  165.8728 N.am    1  UNL1       -0.2688
      9 C         142.8560  142.1176  167.3301 C.2     1  UNL1        0.2515
     10 O         144.0178  142.9651  167.7568 O.2     1  UNL1       -0.2698
     11 C         143.3823  142.6488  164.8420 C.3     1  UNL1        0.1343
     12 C         144.5441  143.4963  165.2686 C.3     1  UNL1        0.0298
     13 C         142.0119  141.4283  168.3608 C.ar    1  UNL1        0.0811
     14 C         142.4507  140.1124  168.9316 C.ar    1  UNL1        0.0091
     15 C         141.6065  139.4231  169.9623 C.ar    1  UNL1        0.0299
     16 C         140.3237  140.0497  170.4222 C.ar    1  UNL1        0.1424
     17 F         139.4795  139.3604  171.4530 F       1  UNL1       -0.2041
     18 C         139.8849  141.3657  169.8515 C.ar    1  UNL1        0.0594
     19 C         140.7290  142.0550  168.8208 C.ar    1  UNL1        0.1467
     20 F         140.2902  143.3709  168.2500 F       1  UNL1       -0.2039
     21 C         137.8666  140.7285  158.1046 C.3     1  UNL1        0.0744
     22 C         138.9987  140.5277  159.0679 C.ar    1  UNL1        0.1481
     23 N         139.5332  139.2070  159.5372 N.ar    1  UNL1       -0.1929
     24 S         140.6599  139.4753  160.4904 S.2     1  UNL1        0.0369
     25 C         140.8218  140.9618  160.6101 C.ar    1  UNL1        0.1652
     26 N         139.7951  141.6122  159.7310 N.ar    1  UNL1       -0.2190
@<TRIPOS>BOND
     1    21    22    1
     2    22    23   ar
     3    23    24   ar
     4    24    25   ar
     5    25     1    1
     6     1     2   ar
     7     2     3   ar
     8     3     4   ar
     9     4     5   ar
    10     5     6    1
    11     6     7    1
    12     7     8    1
    13     8     9   am
    14     9    10    2
    15     9    13    1
    16    13    14   ar
    17    14    15   ar
    18    15    16   ar
    19    16    17    1
    20    16    18   ar
    21    18    19   ar
    22    19    20    1
    23     8    11    1
    24    11    12    1
    25    25    26   ar
    26    26    22   ar
    27     5     1   ar
    28    19    13   ar
    29    11     4    1
@<TRIPOS>MOLECULE
*****
 26 29 0 0 0
SMALL
GASTEIGER

@<TRIPOS>ATOM
      1 C         140.6456  140.7062  168.3434 C.ar    1  UNL1        0.1917
      2 N         139.4420  139.9985  168.8915 N.ar    1  UNL1       -0.1268
      3 N         138.8463  139.1750  167.7883 N.ar    1  UNL1       -0.1316
      4 C         139.6818  139.3737  166.5585 C.ar    1  UNL1        0.1615
      5 N         140.7938  140.3201  166.9015 N.ar    1  UNL1       -0.2940
      6 C         141.7977  140.7080  165.8567 C.3     1  UNL1        0.1302
      7 C         141.6895  140.1495  164.4687 C.3     1  UNL1        0.1186
      8 N         140.5774  139.2031  164.1256 N.am    1  UNL1       -0.2688
      9 C         140.4692  138.6446  162.7377 C.2     1  UNL1        0.2515
     10 O         139.3572  137.6983  162.3947 O.2     1  UNL1       -0.2698
     11 C         139.5735  138.8153  165.1706 C.3     1  UNL1        0.1343
     12 C         138.4615  137.8689  164.8275 C.3     1  UNL1        0.0298
     13 C         141.4731  139.0325  161.6929 C.ar    1  UNL1        0.0811
     14 C         142.7266  138.2268  161.5214 C.ar    1  UNL1        0.0091
     15 C         143.7305  138.6147  160.4764 C.ar    1  UNL1        0.0299
     16 C         143.4808  139.8084  159.6031 C.ar    1  UNL1        0.1424
     17 F         144.4847  140.1963  158.5581 F       1  UNL1       -0.2041
     18 C         142.2273  140.6141  159.7746 C.ar    1  UNL1        0.0594
     19 C         141.2234  140.2262  160.8194 C.ar    1  UNL1        0.1467
     20 F         139.9699  141.0320  160.9909 F       1  UNL1       -0.2039
     21 C         144.9586  143.0599  170.2771 C.3     1  UNL1        0.0744
     22 C         143.5260  142.7186  169.9925 C.ar    1  UNL1        0.1481
     23 N         142.3244  143.4187  170.5547 N.ar    1  UNL1       -0.1929
     24 S         141.0991  142.7501  170.0054 S.2     1  UNL1        0.0369
     25 C         141.5435  141.6368  169.1037 C.ar    1  UNL1        0.1652
     26 N         143.0433  141.6173  169.0957 N.ar    1  UNL1       -0.2190
@<TRIPOS>BOND
     1    21    22    1
     2    22    23   ar
     3    23    24   ar
     4    24    25   ar
     5    25     1    1
     6     1     2   ar
     7     2     3   ar
     8     3     4   ar
     9     4     5   ar
    10     5     6    1
    11     6     7    1
    12     7     8    1
    13     8     9   am
    14     9    10    2
    15     9    13    1
    16    13    14   ar
    17    14    15   ar
    18    15    16   ar
    19    16    17    1
    20    16    18   ar
    21    18    19   ar
    22    19    20    1
    23     8    11    1
    24    11    12    1
    25    25    26   ar
    26    26    22   ar
    27     5     1   ar
    28    19    13   ar
    29    11     4    1
