@<TRIPOS>MOLECULE
*****
 32 34 0 0 0
SMALL
GASTEIGER

@<TRIPOS>ATOM
      1 C         141.6724  140.0329  165.5394 C.2     1  UNL1        0.2488
      2 O         141.8705  141.3007  164.7627 O.2     1  UNL1       -0.2700
      3 N         141.7820  138.7056  164.8493 N.am    1  UNL1       -0.2999
      4 H         141.6520  137.8735  165.3591 H       1  UNL1        0.1498
      5 C         139.9650  139.8528  167.4894 C.ar    1  UNL1        0.1443
      6 C         139.6573  139.9123  168.9562 C.ar    1  UNL1        0.0520
      7 C         140.7494  140.2112  169.9401 C.ar    1  UNL1        0.0553
      8 N         140.4417  140.2706  171.4071 N.pl3   1  UNL1       -0.3563
      9 C         142.1491  140.4507  169.4571 C.ar    1  UNL1        0.0709
     10 CL        143.2412  140.7496  170.4410 Cl      1  UNL1       -0.0810
     11 C         142.4568  140.3913  167.9902 C.ar    1  UNL1        0.0202
     12 C         141.3647  140.0923  167.0064 C.ar    1  UNL1        0.0882
     13 H         139.5230  140.1134  171.7241 H       1  UNL1        0.1424
     14 H         141.1585  140.4668  172.0528 H       1  UNL1        0.1424
     15 C         137.7629  138.6167  166.8789 C.3     1  UNL1        0.2525
     16 O         138.8729  139.5539  166.5055 O.3     1  UNL1       -0.4712
     17 C         142.0897  138.6461  163.3824 C.3     1  UNL1        0.1017
     18 C         140.9911  138.3825  162.3957 C.3     1  UNL1        0.0394
     19 C         141.2989  138.3231  160.9288 C.3     1  UNL1        0.0739
     20 N         142.7052  138.5272  160.4486 N.3     1  UNL1       -0.2705
     21 C         143.8038  138.7908  161.4353 C.3     1  UNL1        0.1037
     22 C         143.4961  138.8503  162.9022 C.3     1  UNL1        0.1490
     23 O         144.5947  139.1139  163.8889 O.3     1  UNL1       -0.3505
     24 C         145.2410  140.4662  163.9481 C.3     1  UNL1        0.1741
     25 C         143.0129  138.4677  158.9817 C.3     1  UNL1        0.0742
     26 C         142.2588  137.5216  158.0950 C.3     1  UNL1        0.0418
     27 C         142.9513  136.8659  156.9371 C.3     1  UNL1        0.1075
     28 N         142.7369  135.4067  156.6637 N.ar    1  UNL1       -0.3249
     29 C         143.4045  134.2686  157.3771 C.ar    1  UNL1        0.0760
     30 C         142.8975  132.9879  156.7832 C.ar    1  UNL1        0.0202
     31 C         141.9166  133.3345  155.7026 C.ar    1  UNL1        0.0202
     32 C         141.8173  134.8294  155.6287 C.ar    1  UNL1        0.0760
@<TRIPOS>BOND
     1    15    16    1
     2    16     5    1
     3     5     6   ar
     4     6     7   ar
     5     7     8    1
     6     7     9   ar
     7     9    10    1
     8     9    11   ar
     9    11    12   ar
    10    12     1    1
    11     1     2    2
    12     1     3   am
    13    17     3    1
    14    17    18    1
    15    18    19    1
    16    19    20    1
    17    20    25    1
    18    25    26    1
    19    26    27    1
    20    27    28    1
    21    28    29   ar
    22    29    30   ar
    23    30    31   ar
    24    31    32   ar
    25    20    21    1
    26    21    22    1
    27    22    23    1
    28    23    24    1
    29    12     5   ar
    30    22    17    1
    31    32    28   ar
    32     8    13    1
    33     8    14    1
    34     3     4    1
@<TRIPOS>MOLECULE
*****
 32 34 0 0 0
SMALL
GASTEIGER

@<TRIPOS>ATOM
      1 C         141.6814  139.8854  165.4954 C.2     1  UNL1        0.2488
      2 O         142.2408  141.0981  164.8124 O.2     1  UNL1       -0.2700
      3 N         141.4779  138.6162  164.7223 N.am    1  UNL1       -0.2999
      4 H         141.1108  137.8203  165.1706 H       1  UNL1        0.1498
      5 C         139.8858  139.9463  167.3721 C.ar    1  UNL1        0.1443
      6 C         139.5301  140.0028  168.8282 C.ar    1  UNL1        0.0520
      7 C         140.6141  140.0549  169.8637 C.ar    1  UNL1        0.0553
      8 N         140.2583  140.1114  171.3198 N.pl3   1  UNL1       -0.3563
      9 C         142.0539  140.0506  169.4431 C.ar    1  UNL1        0.0709
     10 CL        143.1379  140.1027  170.4785 Cl      1  UNL1       -0.0810
     11 C         142.4096  139.9941  167.9870 C.ar    1  UNL1        0.0202
     12 C         141.3256  139.9420  166.9515 C.ar    1  UNL1        0.0882
     13 H         139.3133  140.1143  171.5959 H       1  UNL1        0.1424
     14 H         140.9697  140.1457  171.9994 H       1  UNL1        0.1424
     15 C         138.0098  138.6352  166.1427 C.3     1  UNL1        0.2525
     16 O         138.8018  139.8942  166.3367 O.3     1  UNL1       -0.4712
     17 C         141.8337  138.5597  163.2663 C.3     1  UNL1        0.1017
     18 C         143.2718  138.4750  162.8483 C.3     1  UNL1        0.0394
     19 C         143.6276  138.4184  161.3922 C.3     1  UNL1        0.0739
     20 N         142.5453  138.4466  160.3540 N.3     1  UNL1       -0.2705
     21 C         141.1072  138.5313  160.7720 C.3     1  UNL1        0.1037
     22 C         140.7514  138.5879  162.2280 C.3     1  UNL1        0.1490
     23 O         139.3133  138.6726  162.6460 O.3     1  UNL1       -0.3505
     24 C         138.6026  139.9933  162.6245 C.3     1  UNL1        0.1741
     25 C         142.9011  138.3900  158.8980 C.3     1  UNL1        0.0742
     26 C         142.2001  137.4220  157.9916 C.3     1  UNL1        0.0418
     27 C         142.9617  136.7305  156.8999 C.3     1  UNL1        0.1075
     28 N         142.6966  135.2849  156.6001 N.ar    1  UNL1       -0.3249
     29 C         141.7478  134.7588  155.5643 C.ar    1  UNL1        0.0760
     30 C         141.7986  133.2603  155.6075 C.ar    1  UNL1        0.0202
     31 C         142.7789  132.8602  156.6700 C.ar    1  UNL1        0.0202
     32 C         143.3339  134.1114  157.2835 C.ar    1  UNL1        0.0760
@<TRIPOS>BOND
     1    15    16    1
     2    16     5    1
     3     5     6   ar
     4     6     7   ar
     5     7     8    1
     6     7     9   ar
     7     9    10    1
     8     9    11   ar
     9    11    12   ar
    10    12     1    1
    11     1     2    2
    12     1     3   am
    13    17     3    1
    14    17    18    1
    15    18    19    1
    16    19    20    1
    17    20    25    1
    18    25    26    1
    19    26    27    1
    20    27    28    1
    21    28    29   ar
    22    29    30   ar
    23    30    31   ar
    24    31    32   ar
    25    20    21    1
    26    21    22    1
    27    22    23    1
    28    23    24    1
    29    12     5   ar
    30    22    17    1
    31    32    28   ar
    32     8    13    1
    33     8    14    1
    34     3     4    1
@<TRIPOS>MOLECULE
*****
 32 34 0 0 0
SMALL
GASTEIGER

@<TRIPOS>ATOM
      1 C         140.6203  142.0737  165.5475 C.2     1  UNL1        0.2488
      2 O         139.9222  140.7953  165.1892 O.2     1  UNL1       -0.2700
      3 N         140.7814  143.1538  164.5192 N.am    1  UNL1       -0.2999
      4 H         141.2396  143.9929  164.7544 H       1  UNL1        0.1498
      5 C         142.6379  142.2623  167.1734 C.ar    1  UNL1        0.1443
      6 C         143.1747  142.4606  168.5599 C.ar    1  UNL1        0.0520
      7 C         142.2309  142.6685  169.7070 C.ar    1  UNL1        0.0553
      8 N         142.7678  142.8668  171.0936 N.pl3   1  UNL1       -0.3563
      9 C         140.7502  142.6782  169.4676 C.ar    1  UNL1        0.0709
     10 CL        139.8063  142.8861  170.6148 Cl      1  UNL1       -0.0810
     11 C         140.2133  142.4799  168.0811 C.ar    1  UNL1        0.0202
     12 C         141.1572  142.2720  166.9340 C.ar    1  UNL1        0.0882
     13 H         143.7397  142.8605  171.2507 H       1  UNL1        0.1424
     14 H         142.1483  143.0033  171.8465 H       1  UNL1        0.1424
     15 C         144.2908  143.2271  165.4164 C.3     1  UNL1        0.2525
     16 O         143.5818  142.0544  166.0263 O.3     1  UNL1       -0.4712
     17 C         140.2445  142.9556  163.1327 C.3     1  UNL1        0.1017
     18 C         138.7739  143.0925  162.8712 C.3     1  UNL1        0.0394
     19 C         138.2370  142.8942  161.4846 C.3     1  UNL1        0.0739
     20 N         139.1708  142.5591  160.3596 N.3     1  UNL1       -0.2705
     21 C         140.6415  142.4222  160.6211 C.3     1  UNL1        0.1037
     22 C         141.1784  142.6204  162.0076 C.3     1  UNL1        0.1490
     23 O         142.6490  142.4836  162.2691 O.3     1  UNL1       -0.3505
     24 C         143.2446  141.1286  162.5125 C.3     1  UNL1        0.1741
     25 C         138.6339  142.3608  158.9731 C.3     1  UNL1        0.0742
     26 C         138.0549  141.0355  158.5755 C.3     1  UNL1        0.0418
     27 C         138.8347  139.7757  158.8096 C.3     1  UNL1        0.1075
     28 N         138.8573  139.1500  160.1728 N.ar    1  UNL1       -0.3249
     29 C         139.9936  138.3718  160.7670 C.ar    1  UNL1        0.0760
     30 C         139.5862  137.9336  162.1425 C.ar    1  UNL1        0.0202
     31 C         138.1980  138.4410  162.3983 C.ar    1  UNL1        0.0202
     32 C         137.7475  139.1928  161.1810 C.ar    1  UNL1        0.0760
@<TRIPOS>BOND
     1    15    16    1
     2    16     5    1
     3     5     6   ar
     4     6     7   ar
     5     7     8    1
     6     7     9   ar
     7     9    10    1
     8     9    11   ar
     9    11    12   ar
    10    12     1    1
    11     1     2    2
    12     1     3   am
    13    17     3    1
    14    17    18    1
    15    18    19    1
    16    19    20    1
    17    20    25    1
    18    25    26    1
    19    26    27    1
    20    27    28    1
    21    28    29   ar
    22    29    30   ar
    23    30    31   ar
    24    31    32   ar
    25    20    21    1
    26    21    22    1
    27    22    23    1
    28    23    24    1
    29    12     5   ar
    30    22    17    1
    31    32    28   ar
    32     8    13    1
    33     8    14    1
    34     3     4    1
@<TRIPOS>MOLECULE
*****
 32 34 0 0 0
SMALL
GASTEIGER

@<TRIPOS>ATOM
      1 C         142.0134  140.3508  165.6459 C.2     1  UNL1        0.2488
      2 O         142.8370  141.5437  165.2605 O.2     1  UNL1       -0.2700
      3 N         141.6782  139.3081  164.6211 N.am    1  UNL1       -0.2999
      4 H         141.1375  138.5252  164.8740 H       1  UNL1        0.1498
      5 C         140.0527  140.1989  167.3438 C.ar    1  UNL1        0.1443
      6 C         139.5642  140.0487  168.7540 C.ar    1  UNL1        0.0520
      7 C         140.5479  139.9003  169.8767 C.ar    1  UNL1        0.0553
      8 N         140.0593  139.7501  171.2870 N.pl3   1  UNL1       -0.3563
      9 C         142.0200  139.9021  169.5891 C.ar    1  UNL1        0.0709
     10 CL        143.0037  139.7536  170.7117 Cl      1  UNL1       -0.0810
     11 C         142.5085  140.0522  168.1789 C.ar    1  UNL1        0.0202
     12 C         141.5248  140.2007  167.0562 C.ar    1  UNL1        0.0882
     13 H         139.0931  139.7490  171.4757 H       1  UNL1        0.1424
     14 H         140.7049  139.6527  172.0238 H       1  UNL1        0.1424
     15 C         138.1749  139.2013  165.8510 C.3     1  UNL1        0.2525
     16 O         139.0690  140.3473  166.2211 O.3     1  UNL1       -0.4712
     17 C         142.1667  139.4582  163.2108 C.3     1  UNL1        0.1017
     18 C         143.5560  139.0244  162.8481 C.3     1  UNL1        0.0394
     19 C         144.0445  139.1745  161.4378 C.3     1  UNL1        0.0739
     20 N         143.1436  139.7585  160.3903 N.3     1  UNL1       -0.2705
     21 C         141.7543  140.1924  160.7530 C.3     1  UNL1        0.1037
     22 C         141.2658  140.0423  162.1632 C.3     1  UNL1        0.1490
     23 O         139.8765  140.4762  162.5259 O.3     1  UNL1       -0.3505
     24 C         139.6249  141.8832  162.9809 C.3     1  UNL1        0.1741
     25 C         143.6321  139.9087  158.9801 C.3     1  UNL1        0.0742
     26 C         143.7349  141.2720  158.3631 C.3     1  UNL1        0.0418
     27 C         144.4646  142.3677  159.0823 C.3     1  UNL1        0.1075
     28 N         143.8545  143.0040  160.2960 N.ar    1  UNL1       -0.3249
     29 C         144.4646  143.0556  161.6653 C.ar    1  UNL1        0.0760
     30 C         143.5144  143.7839  162.5690 C.ar    1  UNL1        0.0202
     31 C         142.3170  144.1825  161.7582 C.ar    1  UNL1        0.0202
     32 C         142.5272  143.7005  160.3533 C.ar    1  UNL1        0.0760
@<TRIPOS>BOND
     1    15    16    1
     2    16     5    1
     3     5     6   ar
     4     6     7   ar
     5     7     8    1
     6     7     9   ar
     7     9    10    1
     8     9    11   ar
     9    11    12   ar
    10    12     1    1
    11     1     2    2
    12     1     3   am
    13    17     3    1
    14    17    18    1
    15    18    19    1
    16    19    20    1
    17    20    25    1
    18    25    26    1
    19    26    27    1
    20    27    28    1
    21    28    29   ar
    22    29    30   ar
    23    30    31   ar
    24    31    32   ar
    25    20    21    1
    26    21    22    1
    27    22    23    1
    28    23    24    1
    29    12     5   ar
    30    22    17    1
    31    32    28   ar
    32     8    13    1
    33     8    14    1
    34     3     4    1
@<TRIPOS>MOLECULE
*****
 32 34 0 0 0
SMALL
GASTEIGER

@<TRIPOS>ATOM
      1 C         141.9978  140.5418  165.6653 C.2     1  UNL1        0.2488
      2 O         142.8000  139.4795  164.9741 O.2     1  UNL1       -0.2700
      3 N         141.6972  141.8319  164.9614 N.am    1  UNL1       -0.2999
      4 H         141.1706  142.5291  165.4151 H       1  UNL1        0.1498
      5 C         140.0267  140.3933  167.3514 C.ar    1  UNL1        0.1443
      6 C         139.5251  140.1657  168.7466 C.ar    1  UNL1        0.0520
      7 C         140.4928  139.8588  169.8508 C.ar    1  UNL1        0.0553
      8 N         139.9911  139.6311  171.2460 N.pl3   1  UNL1       -0.3563
      9 C         141.9622  139.7796  169.5599 C.ar    1  UNL1        0.0709
     10 CL        142.9299  139.4728  170.6642 Cl      1  UNL1       -0.0810
     11 C         142.4638  140.0073  168.1648 C.ar    1  UNL1        0.0202
     12 C         141.4961  140.3142  167.0605 C.ar    1  UNL1        0.0882
     13 H         139.0267  139.6831  171.4370 H       1  UNL1        0.1424
     14 H         140.6263  139.4297  171.9708 H       1  UNL1        0.1424
     15 C         138.3175  139.5867  165.5688 C.3     1  UNL1        0.2525
     16 O         139.0590  140.7002  166.2472 O.3     1  UNL1       -0.4712
     17 C         142.1988  142.0596  163.5663 C.3     1  UNL1        0.1017
     18 C         141.2569  141.9530  162.4038 C.3     1  UNL1        0.0394
     19 C         141.7586  142.1807  161.0086 C.3     1  UNL1        0.0739
     20 N         143.2022  142.5150  160.7760 N.3     1  UNL1       -0.2705
     21 C         144.1442  142.6216  161.9384 C.3     1  UNL1        0.1037
     22 C         143.6425  142.3939  163.3336 C.3     1  UNL1        0.1490
     23 O         144.5845  142.5005  164.4960 O.3     1  UNL1       -0.3505
     24 C         144.5803  143.7306  165.3544 C.3     1  UNL1        0.1741
     25 C         143.7039  142.7427  159.3808 C.3     1  UNL1        0.0742
     26 C         143.4282  141.7293  158.3099 C.3     1  UNL1        0.0418
     27 C         143.9463  140.3287  158.4515 C.3     1  UNL1        0.1075
     28 N         143.4188  139.4402  159.5388 N.ar    1  UNL1       -0.3249
     29 C         144.1567  139.0313  160.7790 C.ar    1  UNL1        0.0760
     30 C         143.2547  138.1430  161.5835 C.ar    1  UNL1        0.0202
     31 C         141.9592  138.0028  160.8404 C.ar    1  UNL1        0.0202
     32 C         142.0606  138.8045  159.5767 C.ar    1  UNL1        0.0760
@<TRIPOS>BOND
     1    15    16    1
     2    16     5    1
     3     5     6   ar
     4     6     7   ar
     5     7     8    1
     6     7     9   ar
     7     9    10    1
     8     9    11   ar
     9    11    12   ar
    10    12     1    1
    11     1     2    2
    12     1     3   am
    13    17     3    1
    14    17    18    1
    15    18    19    1
    16    19    20    1
    17    20    25    1
    18    25    26    1
    19    26    27    1
    20    27    28    1
    21    28    29   ar
    22    29    30   ar
    23    30    31   ar
    24    31    32   ar
    25    20    21    1
    26    21    22    1
    27    22    23    1
    28    23    24    1
    29    12     5   ar
    30    22    17    1
    31    32    28   ar
    32     8    13    1
    33     8    14    1
    34     3     4    1
@<TRIPOS>MOLECULE
*****
 32 34 0 0 0
SMALL
GASTEIGER

@<TRIPOS>ATOM
      1 C         140.5395  142.5871  165.7551 C.2     1  UNL1        0.2488
      2 O         141.9175  142.9044  165.2545 O.2     1  UNL1       -0.2700
      3 N         139.3388  142.9812  164.9470 N.am    1  UNL1       -0.2999
      4 H         138.4344  142.7729  165.2756 H       1  UNL1        0.1498
      5 C         139.5812  140.5965  167.1222 C.ar    1  UNL1        0.1443
      6 C         139.4040  139.8851  168.4308 C.ar    1  UNL1        0.0520
      7 C         140.0079  140.4530  169.6809 C.ar    1  UNL1        0.0553
      8 N         139.8306  139.7415  170.9896 N.pl3   1  UNL1       -0.3563
      9 C         140.7890  141.7322  169.6225 C.ar    1  UNL1        0.0709
     10 CL        141.3928  142.3000  170.8726 Cl      1  UNL1       -0.0810
     11 C         140.9662  142.4435  168.3139 C.ar    1  UNL1        0.0202
     12 C         140.3623  141.8757  167.0637 C.ar    1  UNL1        0.0882
     13 H         139.3179  138.9019  171.0280 H       1  UNL1        0.1424
     14 H         140.2270  140.1142  171.8101 H       1  UNL1        0.1424
     15 C         139.6672  138.9119  165.1461 C.3     1  UNL1        0.2525
     16 O         138.9773  140.0286  165.8720 O.3     1  UNL1       -0.4712
     17 C         139.5160  143.6926  163.6384 C.3     1  UNL1        0.1017
     18 C         139.7910  145.1670  163.6175 C.3     1  UNL1        0.0394
     19 C         139.9682  145.8784  162.3088 C.3     1  UNL1        0.0739
     20 N         139.8704  145.1154  161.0211 N.3     1  UNL1       -0.2705
     21 C         139.5954  143.6410  161.0420 C.3     1  UNL1        0.1037
     22 C         139.4182  142.9296  162.3506 C.3     1  UNL1        0.1490
     23 O         139.1433  141.4551  162.3716 O.3     1  UNL1       -0.3505
     24 C         137.7303  140.9548  162.3166 C.3     1  UNL1        0.1741
     25 C         140.0476  145.8268  159.7125 C.3     1  UNL1        0.0742
     26 C         140.8984  145.2185  158.6374 C.3     1  UNL1        0.0418
     27 C         140.2944  144.8728  157.3086 C.3     1  UNL1        0.1075
     28 N         140.1111  145.9377  156.2682 N.ar    1  UNL1       -0.3249
     29 C         140.7818  145.9851  154.9274 C.ar    1  UNL1        0.0760
     30 C         140.3102  147.2189  154.2164 C.ar    1  UNL1        0.0202
     31 C         139.3480  147.9340  155.1179 C.ar    1  UNL1        0.0202
     32 C         139.2249  147.1422  156.3860 C.ar    1  UNL1        0.0760
@<TRIPOS>BOND
     1    15    16    1
     2    16     5    1
     3     5     6   ar
     4     6     7   ar
     5     7     8    1
     6     7     9   ar
     7     9    10    1
     8     9    11   ar
     9    11    12   ar
    10    12     1    1
    11     1     2    2
    12     1     3   am
    13    17     3    1
    14    17    18    1
    15    18    19    1
    16    19    20    1
    17    20    25    1
    18    25    26    1
    19    26    27    1
    20    27    28    1
    21    28    29   ar
    22    29    30   ar
    23    30    31   ar
    24    31    32   ar
    25    20    21    1
    26    21    22    1
    27    22    23    1
    28    23    24    1
    29    12     5   ar
    30    22    17    1
    31    32    28   ar
    32     8    13    1
    33     8    14    1
    34     3     4    1
@<TRIPOS>MOLECULE
*****
 32 34 0 0 0
SMALL
GASTEIGER

@<TRIPOS>ATOM
      1 C         139.9726  141.7086  165.3361 C.2     1  UNL1        0.2488
      2 O         141.1692  142.2029  164.5786 O.2     1  UNL1       -0.2700
      3 N         138.7367  141.2904  164.5960 N.am    1  UNL1       -0.2999
      4 H         137.9513  140.9660  165.0932 H       1  UNL1        0.1498
      5 C         139.6224  140.3626  167.5305 C.ar    1  UNL1        0.1443
      6 C         139.6617  140.2865  169.0280 C.ar    1  UNL1        0.0520
      7 C         140.0905  141.4802  169.8287 C.ar    1  UNL1        0.0553
      8 N         140.1298  141.4041  171.3263 N.pl3   1  UNL1       -0.3563
      9 C         140.4800  142.7501  169.1318 C.ar    1  UNL1        0.0709
     10 CL        140.9088  143.9439  169.9325 Cl      1  UNL1       -0.0810
     11 C         140.4407  142.8262  167.6343 C.ar    1  UNL1        0.0202
     12 C         140.0119  141.6324  166.8337 C.ar    1  UNL1        0.0882
     13 H         139.8742  140.5706  171.7837 H       1  UNL1        0.1424
     14 H         140.4112  142.1876  171.8518 H       1  UNL1        0.1424
     15 C         137.8053  138.6221  166.8834 C.3     1  UNL1        0.2525
     16 O         139.1936  139.1688  166.7299 O.3     1  UNL1       -0.4712
     17 C         138.6973  141.3666  163.0985 C.3     1  UNL1        0.1017
     18 C         138.1504  142.5895  162.4238 C.3     1  UNL1        0.0394
     19 C         138.1111  142.6656  160.9262 C.3     1  UNL1        0.0739
     20 N         138.6187  141.5188  160.1034 N.3     1  UNL1       -0.2705
     21 C         139.1656  140.2958  160.7781 C.3     1  UNL1        0.1037
     22 C         139.2049  140.2197  162.2756 C.3     1  UNL1        0.1490
     23 O         139.7518  138.9967  162.9503 O.3     1  UNL1       -0.3505
     24 C         138.8904  137.7789  163.1086 C.3     1  UNL1        0.1741
     25 C         138.5793  141.5949  158.6059 C.3     1  UNL1        0.0742
     26 C         137.4791  140.9119  157.8488 C.3     1  UNL1        0.0418
     27 C         137.3724  141.0841  156.3625 C.3     1  UNL1        0.1075
     28 N         136.0299  141.0302  155.6957 N.ar    1  UNL1       -0.3249
     29 C         135.7177  141.4926  154.3033 C.ar    1  UNL1        0.0760
     30 C         134.2586  141.2525  154.0513 C.ar    1  UNL1        0.0202
     31 C         133.6690  140.6418  155.2879 C.ar    1  UNL1        0.0202
     32 C         134.7637  140.5043  156.3043 C.ar    1  UNL1        0.0760
@<TRIPOS>BOND
     1    15    16    1
     2    16     5    1
     3     5     6   ar
     4     6     7   ar
     5     7     8    1
     6     7     9   ar
     7     9    10    1
     8     9    11   ar
     9    11    12   ar
    10    12     1    1
    11     1     2    2
    12     1     3   am
    13    17     3    1
    14    17    18    1
    15    18    19    1
    16    19    20    1
    17    20    25    1
    18    25    26    1
    19    26    27    1
    20    27    28    1
    21    28    29   ar
    22    29    30   ar
    23    30    31   ar
    24    31    32   ar
    25    20    21    1
    26    21    22    1
    27    22    23    1
    28    23    24    1
    29    12     5   ar
    30    22    17    1
    31    32    28   ar
    32     8    13    1
    33     8    14    1
    34     3     4    1
@<TRIPOS>MOLECULE
*****
 32 34 0 0 0
SMALL
GASTEIGER

@<TRIPOS>ATOM
      1 C         140.8239  139.4525  165.6916 C.2     1  UNL1        0.2488
      2 O         141.9852  138.6733  165.1493 O.2     1  UNL1       -0.2700
      3 N         139.7519  139.9438  164.7646 N.am    1  UNL1       -0.2999
      4 H         138.9897  140.4553  165.1205 H       1  UNL1        0.1498
      5 C         139.3961  139.7851  167.8366 C.ar    1  UNL1        0.1443
      6 C         139.3068  140.0731  169.3059 C.ar    1  UNL1        0.0520
      7 C         140.5561  140.3165  170.0998 C.ar    1  UNL1        0.0553
      8 N         140.4668  140.6044  171.5692 N.pl3   1  UNL1       -0.3563
      9 C         141.8946  140.2718  169.4242 C.ar    1  UNL1        0.0709
     10 CL        143.1438  140.5152  170.2181 Cl      1  UNL1       -0.0810
     11 C         141.9838  139.9839  167.9549 C.ar    1  UNL1        0.0202
     12 C         140.7346  139.7405  167.1610 C.ar    1  UNL1        0.0882
     13 H         139.5883  140.6337  172.0126 H       1  UNL1        0.1424
     14 H         141.2867  140.7642  172.0902 H       1  UNL1        0.1424
     15 C         137.4685  138.2053  167.1027 C.3     1  UNL1        0.2525
     16 O         138.1469  139.5418  167.0427 O.3     1  UNL1       -0.4712
     17 C         139.8411  139.6559  163.2952 C.3     1  UNL1        0.1017
     18 C         139.4632  138.3019  162.7719 C.3     1  UNL1        0.0394
     19 C         139.5525  138.0139  161.3025 C.3     1  UNL1        0.0739
     20 N         140.0197  139.0800  160.3564 N.3     1  UNL1       -0.2705
     21 C         140.3976  140.4340  160.8796 C.3     1  UNL1        0.1037
     22 C         140.3083  140.7220  162.3490 C.3     1  UNL1        0.1490
     23 O         140.6863  142.0760  162.8723 O.3     1  UNL1       -0.3505
     24 C         141.7820  142.8571  162.2096 C.3     1  UNL1        0.1741
     25 C         140.1089  138.7921  158.8870 C.3     1  UNL1        0.0742
     26 C         141.4495  138.6195  158.2366 C.3     1  UNL1        0.0418
     27 C         142.5527  137.9138  158.9681 C.3     1  UNL1        0.1075
     28 N         143.1930  138.5579  160.1619 N.ar    1  UNL1       -0.3249
     29 C         143.8255  139.9176  160.1969 C.ar    1  UNL1        0.0760
     30 C         144.3366  140.1555  161.5869 C.ar    1  UNL1        0.0202
     31 C         144.0200  138.9428  162.4111 C.ar    1  UNL1        0.0202
     32 C         143.3132  137.9554  161.5304 C.ar    1  UNL1        0.0760
@<TRIPOS>BOND
     1    15    16    1
     2    16     5    1
     3     5     6   ar
     4     6     7   ar
     5     7     8    1
     6     7     9   ar
     7     9    10    1
     8     9    11   ar
     9    11    12   ar
    10    12     1    1
    11     1     2    2
    12     1     3   am
    13    17     3    1
    14    17    18    1
    15    18    19    1
    16    19    20    1
    17    20    25    1
    18    25    26    1
    19    26    27    1
    20    27    28    1
    21    28    29   ar
    22    29    30   ar
    23    30    31   ar
    24    31    32   ar
    25    20    21    1
    26    21    22    1
    27    22    23    1
    28    23    24    1
    29    12     5   ar
    30    22    17    1
    31    32    28   ar
    32     8    13    1
    33     8    14    1
    34     3     4    1
@<TRIPOS>MOLECULE
*****
 32 34 0 0 0
SMALL
GASTEIGER

@<TRIPOS>ATOM
      1 C         141.5938  139.8413  165.7507 C.2     1  UNL1        0.2488
      2 O         141.6400  141.1027  164.9405 O.2     1  UNL1       -0.2700
      3 N         141.8508  138.5178  165.0932 N.am    1  UNL1       -0.2999
      4 H         141.8205  137.6898  165.6250 H       1  UNL1        0.1498
      5 C         139.8710  140.0279  167.6864 C.ar    1  UNL1        0.1443
      6 C         139.5678  140.0899  169.1541 C.ar    1  UNL1        0.0520
      7 C         140.6843  140.0273  170.1539 C.ar    1  UNL1        0.0553
      8 N         140.3811  140.0893  171.6217 N.pl3   1  UNL1       -0.3563
      9 C         142.1040  139.9027  169.6859 C.ar    1  UNL1        0.0709
     10 CL        143.2205  139.8400  170.6857 Cl      1  UNL1       -0.0810
     11 C         142.4071  139.8407  168.2182 C.ar    1  UNL1        0.0202
     12 C         141.2906  139.9033  167.2185 C.ar    1  UNL1        0.0882
     13 H         139.4493  140.1711  171.9288 H       1  UNL1        0.1424
     14 H         141.1139  140.0482  172.2779 H       1  UNL1        0.1424
     15 C         137.9975  138.8460  166.3288 C.3     1  UNL1        0.2525
     16 O         138.7545  140.0905  166.6867 O.3     1  UNL1       -0.4712
     17 C         142.1540  138.4557  163.6255 C.3     1  UNL1        0.1017
     18 C         141.0790  138.0696  162.6533 C.3     1  UNL1        0.0394
     19 C         141.3823  138.0075  161.1855 C.3     1  UNL1        0.0739
     20 N         142.7605  138.3316  160.6901 N.3     1  UNL1       -0.2705
     21 C         143.8354  138.7178  161.6623 C.3     1  UNL1        0.1037
     22 C         143.5323  138.7798  163.1300 C.3     1  UNL1        0.1490
     23 O         144.6072  139.1660  164.1023 O.3     1  UNL1       -0.3505
     24 C         145.1915  140.5470  164.0649 C.3     1  UNL1        0.1741
     25 C         143.0636  138.2696  159.2224 C.3     1  UNL1        0.0742
     26 C         142.4385  139.2597  158.2849 C.3     1  UNL1        0.0418
     27 C         142.9502  140.6688  158.2318 C.3     1  UNL1        0.1075
     28 N         143.0459  141.4798  159.4900 N.ar    1  UNL1       -0.3249
     29 C         141.9223  141.7674  160.4412 C.ar    1  UNL1        0.0760
     30 C         142.4639  142.6110  161.5570 C.ar    1  UNL1        0.0202
     31 C         143.9223  142.8448  161.2954 C.ar    1  UNL1        0.0202
     32 C         144.2821  142.1457  160.0179 C.ar    1  UNL1        0.0760
@<TRIPOS>BOND
     1    15    16    1
     2    16     5    1
     3     5     6   ar
     4     6     7   ar
     5     7     8    1
     6     7     9   ar
     7     9    10    1
     8     9    11   ar
     9    11    12   ar
    10    12     1    1
    11     1     2    2
    12     1     3   am
    13    17     3    1
    14    17    18    1
    15    18    19    1
    16    19    20    1
    17    20    25    1
    18    25    26    1
    19    26    27    1
    20    27    28    1
    21    28    29   ar
    22    29    30   ar
    23    30    31   ar
    24    31    32   ar
    25    20    21    1
    26    21    22    1
    27    22    23    1
    28    23    24    1
    29    12     5   ar
    30    22    17    1
    31    32    28   ar
    32     8    13    1
    33     8    14    1
    34     3     4    1
