@<TRIPOS>MOLECULE
*****
 24 27 0 0 0
SMALL
GASTEIGER

@<TRIPOS>ATOM
      1 N         138.9596  145.8230  161.7011 N.pl3   1  UNL1       -0.1293
      2 C         139.7619  145.5596  162.9408 C.cat   1  UNL1        0.3838
      3 H         139.3932  146.2128  160.9077 H       1  UNL1        0.3062
      4 N         141.2248  145.8900  162.9718 N.pl3   1  UNL1       -0.2424
      5 H         141.5205  146.8243  162.8776 H       1  UNL1        0.2649
      6 C         142.2370  144.7969  163.1461 C.ar    1  UNL1        0.1168
      7 C         143.3614  144.9650  164.1247 C.ar    1  UNL1        0.0338
      8 C         144.3736  143.8719  164.2991 C.ar    1  UNL1        0.0087
      9 C         144.2615  142.6106  163.4949 C.ar    1  UNL1        0.0303
     10 I         145.2737  141.5174  163.6693 I       1  UNL1       -0.0425
     11 C         143.1371  142.4424  162.5164 C.ar    1  UNL1        0.0087
     12 C         142.1249  143.5356  162.3420 C.ar    1  UNL1        0.0338
     13 N         139.1014  144.9658  164.1495 N.pl3   1  UNL1       -0.2685
     14 H         138.9139  145.5293  164.9347 H       1  UNL1        0.2585
     15 C         138.7265  143.5134  164.1619 C.3     1  UNL1        0.1089
     16 C         139.3199  142.5944  165.1882 C.3     1  UNL1        0.0361
     17 C         138.9450  141.1421  165.2006 C.3     1  UNL1        0.0032
     18 C         137.9767  140.6088  164.1867 C.3     1  UNL1        0.0002
     19 C         137.3834  141.5277  163.1604 C.3     1  UNL1        0.0032
     20 C         139.3865  143.3504  165.0243 C.3     1  UNL1        0.0002
     21 C         140.2881  143.1278  166.2022 C.3     1  UNL1        0.0032
     22 C         139.9132  141.6754  166.2146 C.3     1  UNL1        0.0002
     23 C         139.6947  144.0467  165.1759 C.3     1  UNL1        0.0361
     24 C         137.7583  142.9801  163.1480 C.3     1  UNL1        0.0361
@<TRIPOS>BOND
     1     1     2    2
     2     2     4    1
     3     4     6    1
     4     6     7   ar
     5     7     8   ar
     6     8     9   ar
     7     9    10    1
     8     9    11   ar
     9    11    12   ar
    10     2    13    1
    11    13    15    1
    12    15    16    1
    13    16    17    1
    14    17    18    1
    15    18    19    1
    16    19    20    1
    17    20    21    1
    18    21    22    1
    19    21    23    1
    20    19    24    1
    21    12     6   ar
    22    23    15    1
    23    24    15    1
    24    22    17    1
    25     1     3    1
    26     4     5    1
    27    13    14    1
@<TRIPOS>MOLECULE
*****
 24 27 0 0 0
SMALL
GASTEIGER

@<TRIPOS>ATOM
      1 N         139.2057  146.1880  161.6953 N.pl3   1  UNL1       -0.1293
      2 C         138.8265  145.1585  162.7181 C.cat   1  UNL1        0.3838
      3 H         138.7816  146.1788  160.8068 H       1  UNL1        0.3062
      4 N         137.8010  144.1149  162.3872 N.pl3   1  UNL1       -0.2424
      5 H         136.8750  144.3813  162.1850 H       1  UNL1        0.2649
      6 C         138.1863  142.6654  162.3644 C.ar    1  UNL1        0.1168
      7 C         139.3846  142.2202  161.5797 C.ar    1  UNL1        0.0338
      8 C         139.7700  140.7707  161.5570 C.ar    1  UNL1        0.0087
      9 C         138.9569  139.7664  162.3189 C.ar    1  UNL1        0.0303
     10 I         139.3423  138.3170  162.2961 I       1  UNL1       -0.0425
     11 C         137.7586  140.2117  163.1036 C.ar    1  UNL1        0.0087
     12 C         137.3733  141.6612  163.1263 C.ar    1  UNL1        0.0338
     13 N         139.4726  145.1724  164.0716 N.pl3   1  UNL1       -0.2685
     14 H         138.9889  145.5446  164.8442 H       1  UNL1        0.2585
     15 C         140.8557  144.6194  164.2483 C.3     1  UNL1        0.1089
     16 C         141.0771  143.4158  165.1156 C.3     1  UNL1        0.0361
     17 C         142.4602  142.8628  165.2921 C.3     1  UNL1        0.0032
     18 C         143.6219  143.5135  164.6014 C.3     1  UNL1        0.0002
     19 C         143.4005  144.7171  163.7341 C.3     1  UNL1        0.0032
     20 C         140.4583  143.8357  164.9068 C.3     1  UNL1        0.0002
     21 C         139.9154  142.7652  165.8063 C.3     1  UNL1        0.0032
     22 C         141.2985  142.2122  165.9829 C.3     1  UNL1        0.0002
     23 C         139.6940  143.9688  164.9390 C.3     1  UNL1        0.0361
     24 C         142.0174  145.2700  163.5575 C.3     1  UNL1        0.0361
@<TRIPOS>BOND
     1     1     2    2
     2     2     4    1
     3     4     6    1
     4     6     7   ar
     5     7     8   ar
     6     8     9   ar
     7     9    10    1
     8     9    11   ar
     9    11    12   ar
    10     2    13    1
    11    13    15    1
    12    15    16    1
    13    16    17    1
    14    17    18    1
    15    18    19    1
    16    19    20    1
    17    20    21    1
    18    21    22    1
    19    21    23    1
    20    19    24    1
    21    12     6   ar
    22    23    15    1
    23    24    15    1
    24    22    17    1
    25     1     3    1
    26     4     5    1
    27    13    14    1
@<TRIPOS>MOLECULE
*****
 24 27 0 0 0
SMALL
GASTEIGER

@<TRIPOS>ATOM
      1 N         139.2633  145.6268  161.5454 N.pl3   1  UNL1       -0.1293
      2 C         139.8356  145.4993  162.9261 C.cat   1  UNL1        0.3838
      3 H         139.8412  145.8986  160.7962 H       1  UNL1        0.3062
      4 N         141.2885  145.7858  163.1651 N.pl3   1  UNL1       -0.2424
      5 H         141.6029  146.7167  163.2270 H       1  UNL1        0.2649
      6 C         142.2622  144.6541  163.3098 C.ar    1  UNL1        0.1168
      7 C         142.0070  143.3513  162.6116 C.ar    1  UNL1        0.0338
      8 C         142.9808  142.2195  162.7563 C.ar    1  UNL1        0.0087
      9 C         144.2097  142.3906  163.5992 C.ar    1  UNL1        0.0303
     10 I         145.1834  141.2588  163.7439 I       1  UNL1       -0.0425
     11 C         144.4649  143.6934  164.2975 C.ar    1  UNL1        0.0087
     12 C         143.4911  144.8252  164.1528 C.ar    1  UNL1        0.0338
     13 N         138.9551  145.0853  164.0677 N.pl3   1  UNL1       -0.2685
     14 H         138.2551  145.6949  164.3956 H       1  UNL1        0.2585
     15 C         139.1411  143.7424  164.7096 C.3     1  UNL1        0.1089
     16 C         138.4309  142.5422  164.1572 C.3     1  UNL1        0.0361
     17 C         138.6169  141.1994  164.7991 C.3     1  UNL1        0.0032
     18 C         139.5132  141.0567  165.9935 C.3     1  UNL1        0.0002
     19 C         140.2233  142.2569  166.5459 C.3     1  UNL1        0.0032
     20 C         138.4621  143.2954  163.9713 C.3     1  UNL1        0.0002
     21 C         137.5347  142.6849  162.9629 C.3     1  UNL1        0.0032
     22 C         137.7207  141.3420  163.6048 C.3     1  UNL1        0.0002
     23 C         138.2449  143.8850  163.5153 C.3     1  UNL1        0.0361
     24 C         140.0373  143.5997  165.9039 C.3     1  UNL1        0.0361
@<TRIPOS>BOND
     1     1     2    2
     2     2     4    1
     3     4     6    1
     4     6     7   ar
     5     7     8   ar
     6     8     9   ar
     7     9    10    1
     8     9    11   ar
     9    11    12   ar
    10     2    13    1
    11    13    15    1
    12    15    16    1
    13    16    17    1
    14    17    18    1
    15    18    19    1
    16    19    20    1
    17    20    21    1
    18    21    22    1
    19    21    23    1
    20    19    24    1
    21    12     6   ar
    22    23    15    1
    23    24    15    1
    24    22    17    1
    25     1     3    1
    26     4     5    1
    27    13    14    1
@<TRIPOS>MOLECULE
*****
 24 27 0 0 0
SMALL
GASTEIGER

@<TRIPOS>ATOM
      1 N         145.9157  142.0844  162.3944 N.pl3   1  UNL1       -0.1293
      2 C         145.3376  141.5254  163.6606 C.cat   1  UNL1        0.3838
      3 H         145.9734  143.0591  162.2678 H       1  UNL1        0.3062
      4 N         144.8473  142.4515  164.7340 N.pl3   1  UNL1       -0.2424
      5 H         145.4509  142.7240  165.4625 H       1  UNL1        0.2649
      6 C         143.4375  142.9622  164.6975 C.ar    1  UNL1        0.1168
      7 C         143.0749  144.0990  163.7885 C.ar    1  UNL1        0.0338
      8 C         141.6651  144.6098  163.7520 C.ar    1  UNL1        0.0087
      9 C         140.6177  143.9838  164.6245 C.ar    1  UNL1        0.0303
     10 I         139.2078  144.4946  164.5880 I       1  UNL1       -0.0425
     11 C         140.9802  142.8470  165.5335 C.ar    1  UNL1        0.0087
     12 C         142.3902  142.3362  165.5699 C.ar    1  UNL1        0.0338
     13 N         145.2497  140.0405  163.8534 N.pl3   1  UNL1       -0.2685
     14 H         145.9678  139.5624  164.3278 H       1  UNL1        0.2585
     15 C         144.0679  139.2840  163.3233 C.3     1  UNL1        0.1089
     16 C         143.0983  138.6459  164.2733 C.3     1  UNL1        0.0361
     17 C         141.9165  137.8894  163.7432 C.3     1  UNL1        0.0032
     18 C         141.7043  137.7710  162.2630 C.3     1  UNL1        0.0002
     19 C         142.6739  138.4091  161.3130 C.3     1  UNL1        0.0032
     20 C         143.7478  139.0643  164.3504 C.3     1  UNL1        0.0002
     21 C         143.3105  138.7642  165.7535 C.3     1  UNL1        0.0032
     22 C         142.1287  138.0078  165.2234 C.3     1  UNL1        0.0002
     23 C         144.2801  139.4023  164.8035 C.3     1  UNL1        0.0361
     24 C         143.8557  139.1656  161.8431 C.3     1  UNL1        0.0361
@<TRIPOS>BOND
     1     1     2    2
     2     2     4    1
     3     4     6    1
     4     6     7   ar
     5     7     8   ar
     6     8     9   ar
     7     9    10    1
     8     9    11   ar
     9    11    12   ar
    10     2    13    1
    11    13    15    1
    12    15    16    1
    13    16    17    1
    14    17    18    1
    15    18    19    1
    16    19    20    1
    17    20    21    1
    18    21    22    1
    19    21    23    1
    20    19    24    1
    21    12     6   ar
    22    23    15    1
    23    24    15    1
    24    22    17    1
    25     1     3    1
    26     4     5    1
    27    13    14    1
@<TRIPOS>MOLECULE
*****
 24 27 0 0 0
SMALL
GASTEIGER

@<TRIPOS>ATOM
      1 N         137.6831  143.2577  161.7127 N.pl3   1  UNL1       -0.1293
      2 C         138.0068  142.6001  163.0214 C.cat   1  UNL1        0.3838
      3 H         138.2043  144.0364  161.4108 H       1  UNL1        0.3062
      4 N         139.1248  143.1291  163.8703 N.pl3   1  UNL1       -0.2424
      5 H         138.9935  143.9457  164.4042 H       1  UNL1        0.2649
      6 C         140.4427  142.4137  163.9056 C.ar    1  UNL1        0.1168
      7 C         141.0373  141.8738  162.6387 C.ar    1  UNL1        0.0338
      8 C         142.3552  141.1585  162.6740 C.ar    1  UNL1        0.0087
      9 C         143.0787  140.9830  163.9763 C.ar    1  UNL1        0.0303
     10 I         144.3966  140.2677  164.0117 I       1  UNL1       -0.0425
     11 C         142.4841  141.5229  165.2432 C.ar    1  UNL1        0.0087
     12 C         141.1661  142.2383  165.2078 C.ar    1  UNL1        0.0338
     13 N         137.2127  141.4136  163.4813 N.pl3   1  UNL1       -0.2685
     14 H         136.2290  141.4536  163.4915 H       1  UNL1        0.2585
     15 C         137.9172  140.1662  163.9258 C.3     1  UNL1        0.1089
     16 C         138.3365  139.1408  162.9145 C.3     1  UNL1        0.0361
     17 C         139.0410  137.8934  163.3591 C.3     1  UNL1        0.0032
     18 C         139.3262  137.6714  164.8149 C.3     1  UNL1        0.0002
     19 C         138.9068  138.6967  165.8262 C.3     1  UNL1        0.0032
     20 C         137.9739  139.8267  162.8831 C.3     1  UNL1        0.0002
     21 C         138.0514  139.3629  161.4587 C.3     1  UNL1        0.0032
     22 C         138.7559  138.1155  161.9033 C.3     1  UNL1        0.0002
     23 C         137.6320  140.3882  162.4700 C.3     1  UNL1        0.0361
     24 C         138.2023  139.9441  165.3816 C.3     1  UNL1        0.0361
@<TRIPOS>BOND
     1     1     2    2
     2     2     4    1
     3     4     6    1
     4     6     7   ar
     5     7     8   ar
     6     8     9   ar
     7     9    10    1
     8     9    11   ar
     9    11    12   ar
    10     2    13    1
    11    13    15    1
    12    15    16    1
    13    16    17    1
    14    17    18    1
    15    18    19    1
    16    19    20    1
    17    20    21    1
    18    21    22    1
    19    21    23    1
    20    19    24    1
    21    12     6   ar
    22    23    15    1
    23    24    15    1
    24    22    17    1
    25     1     3    1
    26     4     5    1
    27    13    14    1
@<TRIPOS>MOLECULE
*****
 24 27 0 0 0
SMALL
GASTEIGER

@<TRIPOS>ATOM
      1 N         142.1917  137.3270  161.7215 N.pl3   1  UNL1       -0.1293
      2 C         140.9083  137.4920  162.4801 C.cat   1  UNL1        0.3838
      3 H         142.2583  137.6440  160.7919 H       1  UNL1        0.3062
      4 N         139.7262  138.1401  161.8222 N.pl3   1  UNL1       -0.2424
      5 H         139.2144  137.6512  161.1379 H       1  UNL1        0.2649
      6 C         139.3239  139.5329  162.2070 C.ar    1  UNL1        0.1168
      7 C         140.3675  140.5989  162.3634 C.ar    1  UNL1        0.0338
      8 C         139.9652  141.9917  162.7482 C.ar    1  UNL1        0.0087
      9 C         138.5191  142.3186  162.9767 C.ar    1  UNL1        0.0303
     10 I         138.1168  143.7114  163.3615 I       1  UNL1       -0.0425
     11 C         137.4755  141.2526  162.8203 C.ar    1  UNL1        0.0087
     12 C         137.8779  139.8597  162.4355 C.ar    1  UNL1        0.0338
     13 N         140.8069  137.0090  163.8966 N.pl3   1  UNL1       -0.2685
     14 H         141.0919  136.0952  164.1267 H       1  UNL1        0.2585
     15 C         140.2711  137.9183  164.9626 C.3     1  UNL1        0.1089
     16 C         141.1939  138.8583  165.6800 C.3     1  UNL1        0.0361
     17 C         140.6582  139.7675  166.7459 C.3     1  UNL1        0.0032
     18 C         139.1995  139.7368  167.0944 C.3     1  UNL1        0.0002
     19 C         138.2767  138.7968  166.3769 C.3     1  UNL1        0.0032
     20 C         141.2777  138.3286  165.1185 C.3     1  UNL1        0.0002
     21 C         142.6526  138.8891  165.3315 C.3     1  UNL1        0.0032
     22 C         142.1168  139.7983  166.3974 C.3     1  UNL1        0.0002
     23 C         141.7297  137.9491  164.6141 C.3     1  UNL1        0.0361
     24 C         138.8125  137.8876  165.3110 C.3     1  UNL1        0.0361
@<TRIPOS>BOND
     1     1     2    2
     2     2     4    1
     3     4     6    1
     4     6     7   ar
     5     7     8   ar
     6     8     9   ar
     7     9    10    1
     8     9    11   ar
     9    11    12   ar
    10     2    13    1
    11    13    15    1
    12    15    16    1
    13    16    17    1
    14    17    18    1
    15    18    19    1
    16    19    20    1
    17    20    21    1
    18    21    22    1
    19    21    23    1
    20    19    24    1
    21    12     6   ar
    22    23    15    1
    23    24    15    1
    24    22    17    1
    25     1     3    1
    26     4     5    1
    27    13    14    1
@<TRIPOS>MOLECULE
*****
 24 27 0 0 0
SMALL
GASTEIGER

@<TRIPOS>ATOM
      1 N         139.2516  145.9760  161.6910 N.pl3   1  UNL1       -0.1293
      2 C         140.1366  145.4666  162.7899 C.cat   1  UNL1        0.3838
      3 H         138.2933  146.1252  161.8600 H       1  UNL1        0.3062
      4 N         139.5613  145.1847  164.1463 N.pl3   1  UNL1       -0.2424
      5 H         139.3431  145.9288  164.7528 H       1  UNL1        0.2649
      6 C         139.3185  143.7690  164.5785 C.ar    1  UNL1        0.1168
      7 C         140.1084  143.1850  165.7121 C.ar    1  UNL1        0.0338
      8 C         139.8656  141.7693  166.1443 C.ar    1  UNL1        0.0087
      9 C         138.8329  140.9375  165.4429 C.ar    1  UNL1        0.0303
     10 I         138.5901  139.5219  165.8751 I       1  UNL1       -0.0425
     11 C         138.0431  141.5216  164.3093 C.ar    1  UNL1        0.0087
     12 C         138.2859  142.9374  163.8771 C.ar    1  UNL1        0.0338
     13 N         141.5967  145.2392  162.5324 N.pl3   1  UNL1       -0.2685
     14 H         142.1438  145.9548  162.1352 H       1  UNL1        0.2585
     15 C         142.2233  143.9214  162.8802 C.3     1  UNL1        0.1089
     16 C         143.3267  143.8600  163.8944 C.3     1  UNL1        0.0361
     17 C         143.9532  142.5423  164.2421 C.3     1  UNL1        0.0032
     18 C         143.4763  141.2859  163.5757 C.3     1  UNL1        0.0002
     19 C         142.3729  141.3473  162.5615 C.3     1  UNL1        0.0032
     20 C         142.8912  144.4265  163.5906 C.3     1  UNL1        0.0002
     21 C         143.8036  145.1164  164.5609 C.3     1  UNL1        0.0032
     22 C         144.4301  143.7986  164.9086 C.3     1  UNL1        0.0002
     23 C         142.7002  145.1778  163.5467 C.3     1  UNL1        0.0361
     24 C         141.7463  142.6651  162.2138 C.3     1  UNL1        0.0361
@<TRIPOS>BOND
     1     1     2    2
     2     2     4    1
     3     4     6    1
     4     6     7   ar
     5     7     8   ar
     6     8     9   ar
     7     9    10    1
     8     9    11   ar
     9    11    12   ar
    10     2    13    1
    11    13    15    1
    12    15    16    1
    13    16    17    1
    14    17    18    1
    15    18    19    1
    16    19    20    1
    17    20    21    1
    18    21    22    1
    19    21    23    1
    20    19    24    1
    21    12     6   ar
    22    23    15    1
    23    24    15    1
    24    22    17    1
    25     1     3    1
    26     4     5    1
    27    13    14    1
@<TRIPOS>MOLECULE
*****
 24 27 0 0 0
SMALL
GASTEIGER

@<TRIPOS>ATOM
      1 N         141.5545  145.5779  160.4103 N.pl3   1  UNL1       -0.1293
      2 C         140.6504  145.3205  161.5792 C.cat   1  UNL1        0.3838
      3 H         141.2703  145.3235  159.5027 H       1  UNL1        0.3062
      4 N         139.3132  144.6754  161.3653 N.pl3   1  UNL1       -0.2424
      5 H         138.5533  145.2125  161.0437 H       1  UNL1        0.2649
      6 C         139.1337  143.2120  161.6413 C.ar    1  UNL1        0.1168
      7 C         137.8183  142.7003  162.1491 C.ar    1  UNL1        0.0338
      8 C         137.6389  141.2370  162.4251 C.ar    1  UNL1        0.0087
      9 C         138.7749  140.2851  162.1934 C.ar    1  UNL1        0.0303
     10 I         138.5954  138.8218  162.4694 I       1  UNL1       -0.0425
     11 C         140.0903  140.7968  161.6856 C.ar    1  UNL1        0.0087
     12 C         140.2697  142.2603  161.4096 C.ar    1  UNL1        0.0338
     13 N         141.0835  145.7083  162.9620 N.pl3   1  UNL1       -0.2685
     14 H         141.2468  146.6545  163.1795 H       1  UNL1        0.2585
     15 C         141.2677  144.6544  164.0134 C.3     1  UNL1        0.1089
     16 C         142.6259  144.0652  164.2549 C.3     1  UNL1        0.0361
     17 C         142.8101  143.0114  165.3063 C.3     1  UNL1        0.0032
     18 C         141.6361  142.5467  166.1161 C.3     1  UNL1        0.0002
     19 C         140.2780  143.1358  165.8746 C.3     1  UNL1        0.0032
     20 C         142.3379  144.6018  163.7731 C.3     1  UNL1        0.0002
     21 C         143.7998  144.5300  163.4450 C.3     1  UNL1        0.0032
     22 C         143.9840  143.4761  164.4964 C.3     1  UNL1        0.0002
     23 C         142.4417  145.1191  163.2035 C.3     1  UNL1        0.0361
     24 C         140.0938  144.1896  164.8233 C.3     1  UNL1        0.0361
@<TRIPOS>BOND
     1     1     2    2
     2     2     4    1
     3     4     6    1
     4     6     7   ar
     5     7     8   ar
     6     8     9   ar
     7     9    10    1
     8     9    11   ar
     9    11    12   ar
    10     2    13    1
    11    13    15    1
    12    15    16    1
    13    16    17    1
    14    17    18    1
    15    18    19    1
    16    19    20    1
    17    20    21    1
    18    21    22    1
    19    21    23    1
    20    19    24    1
    21    12     6   ar
    22    23    15    1
    23    24    15    1
    24    22    17    1
    25     1     3    1
    26     4     5    1
    27    13    14    1
@<TRIPOS>MOLECULE
*****
 24 27 0 0 0
SMALL
GASTEIGER

@<TRIPOS>ATOM
      1 N         139.3426  146.0477  161.4096 N.pl3   1  UNL1       -0.1293
      2 C         139.0108  145.2232  162.6179 C.cat   1  UNL1        0.3838
      3 H         140.1419  146.6225  161.4103 H       1  UNL1        0.3062
      4 N         139.8968  145.2745  163.8273 N.pl3   1  UNL1       -0.2424
      5 H         139.6293  145.8065  164.6113 H       1  UNL1        0.2649
      6 C         141.1903  144.5152  163.8421 C.ar    1  UNL1        0.1168
      7 C         142.4931  145.2509  163.7354 C.ar    1  UNL1        0.0338
      8 C         143.7866  144.4916  163.7502 C.ar    1  UNL1        0.0087
      9 C         143.7774  142.9966  163.8717 C.ar    1  UNL1        0.0303
     10 I         145.0709  142.2373  163.8865 I       1  UNL1       -0.0425
     11 C         142.4746  142.2608  163.9784 C.ar    1  UNL1        0.0087
     12 C         141.1810  143.0202  163.9636 C.ar    1  UNL1        0.0338
     13 N         137.7930  144.3474  162.6169 N.pl3   1  UNL1       -0.2685
     14 H         136.9125  144.7290  162.3972 H       1  UNL1        0.2585
     15 C         137.9169  142.8902  162.9506 C.3     1  UNL1        0.1089
     16 C         138.2166  141.8958  161.8683 C.3     1  UNL1        0.0361
     17 C         138.3404  140.4387  162.2020 C.3     1  UNL1        0.0032
     18 C         138.1645  139.9760  163.6180 C.3     1  UNL1        0.0002
     19 C         137.8648  140.9704  164.7002 C.3     1  UNL1        0.0032
     20 C         138.1179  142.6656  161.8947 C.3     1  UNL1        0.0002
     21 C         138.3925  142.3586  160.4524 C.3     1  UNL1        0.0032
     22 C         138.5164  140.9014  160.7861 C.3     1  UNL1        0.0002
     23 C         138.0928  143.3530  161.5346 C.3     1  UNL1        0.0361
     24 C         137.7410  142.4275  164.3665 C.3     1  UNL1        0.0361
@<TRIPOS>BOND
     1     1     2    2
     2     2     4    1
     3     4     6    1
     4     6     7   ar
     5     7     8   ar
     6     8     9   ar
     7     9    10    1
     8     9    11   ar
     9    11    12   ar
    10     2    13    1
    11    13    15    1
    12    15    16    1
    13    16    17    1
    14    17    18    1
    15    18    19    1
    16    19    20    1
    17    20    21    1
    18    21    22    1
    19    21    23    1
    20    19    24    1
    21    12     6   ar
    22    23    15    1
    23    24    15    1
    24    22    17    1
    25     1     3    1
    26     4     5    1
    27    13    14    1
