@<TRIPOS>MOLECULE
*****
 46 49 0 0 0
SMALL
GASTEIGER

@<TRIPOS>ATOM
      1 C         140.2942  144.0589  160.0728 C.3     1  UNL1        0.0370
      2 C         139.5790  143.6691  158.8132 C.3     1  UNL1        0.0204
      3 C         140.6119  143.3344  157.7783 C.3     1  UNL1        0.0722
      4 N         141.9655  143.5174  158.3983 N.3     1  UNL1       -0.2726
      5 C         141.7692  143.9652  159.8164 C.3     1  UNL1        0.0738
      6 C         139.6479  144.4703  161.3625 C.3     1  UNL1        0.0911
      7 C         140.6075  143.6746  163.6419 C.2     1  UNL1        0.2458
      8 O         141.6233  144.7775  163.5992 O.2     1  UNL1       -0.2701
      9 N         139.6198  143.5210  162.5235 N.am    1  UNL1       -0.3008
     10 H         138.9531  142.7972  162.5515 H       1  UNL1        0.1497
     11 C         140.5233  140.8268  167.1251 C.ar    1  UNL1        0.1306
     12 C         139.9927  140.3949  165.7903 C.ar    1  UNL1        0.0110
     13 C         140.0207  141.3442  164.6292 C.ar    1  UNL1        0.0032
     14 C         140.5794  142.7253  164.8030 C.ar    1  UNL1        0.0529
     15 C         141.1101  143.1572  166.1378 C.ar    1  UNL1        0.0032
     16 C         141.0820  142.2079  167.2989 C.ar    1  UNL1        0.0110
     17 C         139.4339  139.0137  165.6164 C.3     1  UNL1        0.0218
     18 C         140.8221  138.4746  165.4376 C.3     1  UNL1        0.0045
     19 C         138.0456  139.5529  165.7953 C.3     1  UNL1        0.0045
     20 C         138.8751  137.6326  165.4426 C.3     1  UNL1        0.0045
     21 C         141.6127  142.6398  168.6338 C.3     1  UNL1        0.0218
     22 C         142.9246  141.9813  168.3253 C.3     1  UNL1        0.0045
     23 C         140.3008  143.2983  168.9423 C.3     1  UNL1        0.0045
     24 C         142.1434  143.0717  169.9686 C.3     1  UNL1        0.0045
     25 C         139.3535  139.9152  169.2583 C.3     1  UNL1        0.2524
     26 O         140.4952  139.8775  168.2862 O.3     1  UNL1       -0.4721
     27 C         143.2840  143.2922  157.7194 C.3     1  UNL1        0.0721
     28 C         144.3405  142.4640  158.3887 C.3     1  UNL1        0.0173
     29 C         144.4132  140.9884  158.1289 C.3     1  UNL1        0.0014
     30 C         143.4608  140.0575  158.8191 C.3     1  UNL1        0.0007
     31 C         143.7451  139.5949  160.2173 C.3     1  UNL1        0.0087
     32 C         142.8733  140.0502  161.3498 C.3     1  UNL1        0.0446
     33 C         141.4381  139.6187  161.4120 C.ar    1  UNL1       -0.0183
     34 C         141.0893  138.2405  161.8903 C.ar    1  UNL1       -0.0017
     35 C         139.6540  137.8091  161.9524 C.ar    1  UNL1        0.0293
     36 C         138.5675  138.7558  161.5362 C.ar    1  UNL1        0.1401
     37 F         137.1322  138.3244  161.5983 F       1  UNL1       -0.2042
     38 C         138.9164  140.1341  161.0579 C.ar    1  UNL1        0.0293
     39 C         140.3516  140.5655  160.9957 C.ar    1  UNL1       -0.0017
     40 C         143.4369  140.9370  162.4203 C.ar    1  UNL1       -0.0183
     41 C         143.9465  142.3038  162.0708 C.ar    1  UNL1       -0.0017
     42 C         144.5101  143.1906  163.1413 C.ar    1  UNL1        0.0293
     43 C         144.5640  142.7106  164.5614 C.ar    1  UNL1        0.1401
     44 F         145.1276  143.5974  165.6319 F       1  UNL1       -0.2042
     45 C         144.0544  141.3438  164.9110 C.ar    1  UNL1        0.0293
     46 C         143.4908  140.4570  163.8405 C.ar    1  UNL1       -0.0017
@<TRIPOS>BOND
     1    25    26    1
     2    26    11    1
     3    11    12   ar
     4    12    17    1
     5    17    18    1
     6    17    19    1
     7    17    20    1
     8    12    13   ar
     9    13    14   ar
    10    14     7    1
    11     7     8    2
    12     7     9   am
    13     9     6    1
    14     6     1    1
    15     1     2    1
    16     2     3    1
    17     3     4    1
    18     4    27    1
    19    27    28    1
    20    28    29    1
    21    29    30    1
    22    30    31    1
    23    31    32    1
    24    32    33    1
    25    33    34   ar
    26    34    35   ar
    27    35    36   ar
    28    36    37    1
    29    36    38   ar
    30    38    39   ar
    31    32    40    1
    32    40    41   ar
    33    41    42   ar
    34    42    43   ar
    35    43    44    1
    36    43    45   ar
    37    45    46   ar
    38     4     5    1
    39    14    15   ar
    40    15    16   ar
    41    16    21    1
    42    21    22    1
    43    21    23    1
    44    21    24    1
    45    16    11   ar
    46     5     1    1
    47    39    33   ar
    48    46    40   ar
    49     9    10    1
@<TRIPOS>MOLECULE
*****
 46 49 0 0 0
SMALL
GASTEIGER

@<TRIPOS>ATOM
      1 C         140.0037  144.9069  161.1302 C.3     1  UNL1        0.0370
      2 C         140.4727  145.5347  159.8512 C.3     1  UNL1        0.0204
      3 C         140.0007  144.6780  158.7140 C.3     1  UNL1        0.0722
      4 N         139.2399  143.5207  159.2902 N.3     1  UNL1       -0.2726
      5 C         139.2418  143.6622  160.7835 C.3     1  UNL1        0.0738
      6 C         140.2529  145.4317  162.5132 C.3     1  UNL1        0.0911
      7 C         139.8892  143.8555  164.5462 C.2     1  UNL1        0.2458
      8 O         138.4102  144.0923  164.4652 O.2     1  UNL1       -0.2701
      9 N         140.8105  144.5252  163.5702 N.am    1  UNL1       -0.3008
     10 H         141.7812  144.3697  163.6233 H       1  UNL1        0.1497
     11 C         141.5620  141.1358  167.7172 C.ar    1  UNL1        0.1306
     12 C         141.9960  140.9796  166.2899 C.ar    1  UNL1        0.0110
     13 C         141.4384  141.8861  165.2329 C.ar    1  UNL1        0.0032
     14 C         140.4468  142.9489  165.6032 C.ar    1  UNL1        0.0529
     15 C         140.0128  143.1052  167.0305 C.ar    1  UNL1        0.0032
     16 C         140.5704  142.1986  168.0875 C.ar    1  UNL1        0.0110
     17 C         142.9877  139.9168  165.9196 C.3     1  UNL1        0.0218
     18 C         142.0060  138.8586  166.3275 C.3     1  UNL1        0.0045
     19 C         143.9694  140.9749  165.5116 C.3     1  UNL1        0.0045
     20 C         143.9793  138.8540  165.5492 C.3     1  UNL1        0.0045
     21 C         140.1364  142.3549  169.5149 C.3     1  UNL1        0.0218
     22 C         140.8795  143.6552  169.5984 C.3     1  UNL1        0.0045
     23 C         139.3933  141.0546  169.4313 C.3     1  UNL1        0.0045
     24 C         139.7024  142.5112  170.9421 C.3     1  UNL1        0.0045
     25 C         143.1403  140.7468  169.7439 C.3     1  UNL1        0.2524
     26 O         142.1196  140.2293  168.7742 O.3     1  UNL1       -0.4721
     27 C         138.5911  142.4160  158.5100 C.3     1  UNL1        0.0721
     28 C         139.1767  141.0353  158.5362 C.3     1  UNL1        0.0173
     29 C         138.6431  140.0123  159.4948 C.3     1  UNL1        0.0014
     30 C         139.4170  138.7543  159.7567 C.3     1  UNL1        0.0007
     31 C         139.3704  138.1136  161.1121 C.3     1  UNL1        0.0087
     32 C         140.0114  138.7934  162.2856 C.3     1  UNL1        0.0446
     33 C         139.3491  138.7509  163.6307 C.ar    1  UNL1       -0.0183
     34 C         138.7763  140.0036  164.2246 C.ar    1  UNL1       -0.0017
     35 C         138.1139  139.9611  165.5698 C.ar    1  UNL1        0.0293
     36 C         138.0245  138.6659  166.3212 C.ar    1  UNL1        0.1401
     37 F         137.3622  138.6234  167.6664 F       1  UNL1       -0.2042
     38 C         138.5973  137.4133  165.7273 C.ar    1  UNL1        0.0293
     39 C         139.2596  137.4558  164.3821 C.ar    1  UNL1       -0.0017
     40 C         141.3147  139.5157  162.1138 C.ar    1  UNL1       -0.0183
     41 C         142.6052  138.7516  162.1424 C.ar    1  UNL1       -0.0017
     42 C         143.9086  139.4738  161.9706 C.ar    1  UNL1        0.0293
     43 C         143.9215  140.9603  161.7702 C.ar    1  UNL1        0.1401
     44 F         145.2249  141.6826  161.5984 F       1  UNL1       -0.2042
     45 C         142.6311  141.7245  161.7416 C.ar    1  UNL1        0.0293
     46 C         141.3277  141.0022  161.9134 C.ar    1  UNL1       -0.0017
@<TRIPOS>BOND
     1    25    26    1
     2    26    11    1
     3    11    12   ar
     4    12    17    1
     5    17    18    1
     6    17    19    1
     7    17    20    1
     8    12    13   ar
     9    13    14   ar
    10    14     7    1
    11     7     8    2
    12     7     9   am
    13     9     6    1
    14     6     1    1
    15     1     2    1
    16     2     3    1
    17     3     4    1
    18     4    27    1
    19    27    28    1
    20    28    29    1
    21    29    30    1
    22    30    31    1
    23    31    32    1
    24    32    33    1
    25    33    34   ar
    26    34    35   ar
    27    35    36   ar
    28    36    37    1
    29    36    38   ar
    30    38    39   ar
    31    32    40    1
    32    40    41   ar
    33    41    42   ar
    34    42    43   ar
    35    43    44    1
    36    43    45   ar
    37    45    46   ar
    38     4     5    1
    39    14    15   ar
    40    15    16   ar
    41    16    21    1
    42    21    22    1
    43    21    23    1
    44    21    24    1
    45    16    11   ar
    46     5     1    1
    47    39    33   ar
    48    46    40   ar
    49     9    10    1
@<TRIPOS>MOLECULE
*****
 46 49 0 0 0
SMALL
GASTEIGER

@<TRIPOS>ATOM
      1 C         140.1610  144.9284  161.0175 C.3     1  UNL1        0.0370
      2 C         140.6745  145.4858  159.7230 C.3     1  UNL1        0.0204
      3 C         140.1042  144.6635  158.6056 C.3     1  UNL1        0.0722
      4 N         139.2383  143.5979  159.2095 N.3     1  UNL1       -0.2726
      5 C         139.2734  143.7616  160.7001 C.3     1  UNL1        0.0738
      6 C         140.4793  145.4469  162.3886 C.3     1  UNL1        0.0911
      7 C         140.0452  143.8717  164.4086 C.2     1  UNL1        0.2458
      8 O         138.5767  144.1647  164.3215 O.2     1  UNL1       -0.2701
      9 N         140.9965  144.5128  163.4422 N.am    1  UNL1       -0.3008
     10 H         141.9603  144.3205  163.4994 H       1  UNL1        0.1497
     11 C         141.5968  141.0696  167.5694 C.ar    1  UNL1        0.1306
     12 C         140.5960  142.1269  167.9303 C.ar    1  UNL1        0.0110
     13 C         140.0788  143.0610  166.8767 C.ar    1  UNL1        0.0032
     14 C         140.5624  142.9377  165.4622 C.ar    1  UNL1        0.0529
     15 C         141.5632  141.8803  165.1013 C.ar    1  UNL1        0.0032
     16 C         142.0804  140.9463  166.1549 C.ar    1  UNL1        0.0110
     17 C         140.1123  142.2503  169.3449 C.3     1  UNL1        0.0218
     18 C         139.4075  140.9323  169.2189 C.3     1  UNL1        0.0045
     19 C         140.8172  143.5683  169.4709 C.3     1  UNL1        0.0045
     20 C         139.6287  142.3737  170.7594 C.3     1  UNL1        0.0045
     21 C         143.0813  139.8888  165.7939 C.3     1  UNL1        0.0218
     22 C         144.0680  140.9527  165.4139 C.3     1  UNL1        0.0045
     23 C         142.0945  138.8250  166.1740 C.3     1  UNL1        0.0045
     24 C         144.0821  138.8315  165.4329 C.3     1  UNL1        0.0045
     25 C         143.0965  140.6271  169.6442 C.3     1  UNL1        0.2524
     26 O         142.1140  140.1355  168.6230 O.3     1  UNL1       -0.4721
     27 C         138.4718  142.5521  158.4552 C.3     1  UNL1        0.0721
     28 C         138.9953  141.1486  158.3777 C.3     1  UNL1        0.0173
     29 C         138.5679  140.1315  159.3941 C.3     1  UNL1        0.0014
     30 C         139.4152  138.9192  159.6441 C.3     1  UNL1        0.0007
     31 C         139.3928  138.2528  160.9876 C.3     1  UNL1        0.0087
     32 C         140.0408  138.9179  162.1657 C.3     1  UNL1        0.0446
     33 C         141.3437  139.6412  161.9958 C.ar    1  UNL1       -0.0183
     34 C         142.6372  138.8862  162.0796 C.ar    1  UNL1       -0.0017
     35 C         143.9402  139.6096  161.9097 C.ar    1  UNL1        0.0293
     36 C         143.9498  141.0880  161.6559 C.ar    1  UNL1        0.1401
     37 F         145.2528  141.8113  161.4859 F       1  UNL1       -0.2042
     38 C         142.6564  141.8429  161.5720 C.ar    1  UNL1        0.0293
     39 C         141.3533  141.1195  161.7419 C.ar    1  UNL1       -0.0017
     40 C         139.3856  138.8595  163.5138 C.ar    1  UNL1       -0.0183
     41 C         139.3051  137.5568  164.2529 C.ar    1  UNL1       -0.0017
     42 C         138.6499  137.4985  165.6010 C.ar    1  UNL1        0.0293
     43 C         138.0752  138.7429  166.2100 C.ar    1  UNL1        0.1401
     44 F         137.4200  138.6846  167.5581 F       1  UNL1       -0.2042
     45 C         138.1556  140.0458  165.4709 C.ar    1  UNL1        0.0293
     46 C         138.8108  140.1041  164.1228 C.ar    1  UNL1       -0.0017
@<TRIPOS>BOND
     1    25    26    1
     2    26    11    1
     3    11    12   ar
     4    12    17    1
     5    17    18    1
     6    17    19    1
     7    17    20    1
     8    12    13   ar
     9    13    14   ar
    10    14     7    1
    11     7     8    2
    12     7     9   am
    13     9     6    1
    14     6     1    1
    15     1     2    1
    16     2     3    1
    17     3     4    1
    18     4    27    1
    19    27    28    1
    20    28    29    1
    21    29    30    1
    22    30    31    1
    23    31    32    1
    24    32    33    1
    25    33    34   ar
    26    34    35   ar
    27    35    36   ar
    28    36    37    1
    29    36    38   ar
    30    38    39   ar
    31    32    40    1
    32    40    41   ar
    33    41    42   ar
    34    42    43   ar
    35    43    44    1
    36    43    45   ar
    37    45    46   ar
    38     4     5    1
    39    14    15   ar
    40    15    16   ar
    41    16    21    1
    42    21    22    1
    43    21    23    1
    44    21    24    1
    45    16    11   ar
    46     5     1    1
    47    39    33   ar
    48    46    40   ar
    49     9    10    1
@<TRIPOS>MOLECULE
*****
 46 49 0 0 0
SMALL
GASTEIGER

@<TRIPOS>ATOM
      1 C         140.6276  144.9926  160.2501 C.3     1  UNL1        0.0370
      2 C         140.2784  145.5620  158.9070 C.3     1  UNL1        0.0204
      3 C         141.2799  145.0530  157.9131 C.3     1  UNL1        0.0722
      4 N         142.2481  144.1690  158.6420 N.3     1  UNL1       -0.2726
      5 C         141.8450  144.1317  160.0863 C.3     1  UNL1        0.0738
      6 C         139.8891  145.2407  161.5320 C.3     1  UNL1        0.0911
      7 C         140.7500  144.2305  163.7655 C.2     1  UNL1        0.2458
      8 O         141.7295  145.3587  163.8982 O.2     1  UNL1       -0.2701
      9 N         139.8298  144.1715  162.5824 N.am    1  UNL1       -0.3008
     10 H         139.1869  143.4310  162.4953 H       1  UNL1        0.1497
     11 C         140.5722  141.0228  166.9165 C.ar    1  UNL1        0.1306
     12 C         140.0603  140.7454  165.5342 C.ar    1  UNL1        0.0110
     13 C         140.1196  141.8146  164.4838 C.ar    1  UNL1        0.0032
     14 C         140.6907  143.1612  164.8158 C.ar    1  UNL1        0.0529
     15 C         141.2026  143.4387  166.1982 C.ar    1  UNL1        0.0032
     16 C         141.1433  142.3695  167.2485 C.ar    1  UNL1        0.0110
     17 C         139.4891  139.3986  165.2021 C.3     1  UNL1        0.0218
     18 C         140.8756  138.8345  165.1052 C.3     1  UNL1        0.0045
     19 C         138.1027  139.9628  165.2989 C.3     1  UNL1        0.0045
     20 C         138.9180  138.0520  164.8700 C.3     1  UNL1        0.0045
     21 C         141.6552  142.6470  168.6310 C.3     1  UNL1        0.0218
     22 C         140.3463  143.2873  168.9870 C.3     1  UNL1        0.0045
     23 C         142.9640  142.0066  168.2750 C.3     1  UNL1        0.0045
     24 C         142.1670  142.9245  170.0133 C.3     1  UNL1        0.0045
     25 C         139.3297  139.8689  168.8850 C.3     1  UNL1        0.2524
     26 O         140.5129  139.9536  167.9669 O.3     1  UNL1       -0.4721
     27 C         143.4147  143.4488  158.0334 C.3     1  UNL1        0.0721
     28 C         144.1678  142.4291  158.8352 C.3     1  UNL1        0.0173
     29 C         144.3342  141.0344  158.3085 C.3     1  UNL1        0.0014
     30 C         143.6020  139.8962  158.9552 C.3     1  UNL1        0.0007
     31 C         143.8339  139.5814  160.4033 C.3     1  UNL1        0.0087
     32 C         142.9036  140.1243  161.4472 C.3     1  UNL1        0.0446
     33 C         143.4317  141.0150  162.5324 C.ar    1  UNL1       -0.0183
     34 C         143.5630  140.4940  163.9328 C.ar    1  UNL1       -0.0017
     35 C         144.0911  141.3849  165.0180 C.ar    1  UNL1        0.0293
     36 C         144.4879  142.7966  164.7027 C.ar    1  UNL1        0.1401
     37 F         145.0160  143.6875  165.7879 F       1  UNL1       -0.2042
     38 C         144.3566  143.3176  163.3023 C.ar    1  UNL1        0.0293
     39 C         143.8285  142.4268  162.2171 C.ar    1  UNL1       -0.0017
     40 C         141.4451  139.7763  161.4060 C.ar    1  UNL1       -0.0183
     41 C         141.0131  138.3428  161.4991 C.ar    1  UNL1       -0.0017
     42 C         139.5546  137.9948  161.4579 C.ar    1  UNL1        0.0293
     43 C         138.5281  139.0802  161.3234 C.ar    1  UNL1        0.1401
     44 F         137.0696  138.7322  161.2822 F       1  UNL1       -0.2042
     45 C         138.9601  140.5137  161.2303 C.ar    1  UNL1        0.0293
     46 C         140.4185  140.8617  161.2715 C.ar    1  UNL1       -0.0017
@<TRIPOS>BOND
     1    25    26    1
     2    26    11    1
     3    11    12   ar
     4    12    17    1
     5    17    18    1
     6    17    19    1
     7    17    20    1
     8    12    13   ar
     9    13    14   ar
    10    14     7    1
    11     7     8    2
    12     7     9   am
    13     9     6    1
    14     6     1    1
    15     1     2    1
    16     2     3    1
    17     3     4    1
    18     4    27    1
    19    27    28    1
    20    28    29    1
    21    29    30    1
    22    30    31    1
    23    31    32    1
    24    32    33    1
    25    33    34   ar
    26    34    35   ar
    27    35    36   ar
    28    36    37    1
    29    36    38   ar
    30    38    39   ar
    31    32    40    1
    32    40    41   ar
    33    41    42   ar
    34    42    43   ar
    35    43    44    1
    36    43    45   ar
    37    45    46   ar
    38     4     5    1
    39    14    15   ar
    40    15    16   ar
    41    16    21    1
    42    21    22    1
    43    21    23    1
    44    21    24    1
    45    16    11   ar
    46     5     1    1
    47    39    33   ar
    48    46    40   ar
    49     9    10    1
@<TRIPOS>MOLECULE
*****
 46 49 0 0 0
SMALL
GASTEIGER

@<TRIPOS>ATOM
      1 C         140.7246  145.0462  160.7426 C.3     1  UNL1        0.0370
      2 C         140.2681  145.8983  159.5956 C.3     1  UNL1        0.0204
      3 C         140.4623  145.1157  158.3308 C.3     1  UNL1        0.0722
      4 N         141.0389  143.7800  158.6961 N.3     1  UNL1       -0.2726
      5 C         141.2009  143.7370  160.1867 C.3     1  UNL1        0.0738
      6 C         140.7077  145.4350  162.1913 C.3     1  UNL1        0.0911
      7 C         139.8115  144.0114  164.1712 C.2     1  UNL1        0.2458
      8 O         138.4692  144.6667  164.0347 O.2     1  UNL1       -0.2701
      9 N         140.9308  144.3956  163.2495 N.am    1  UNL1       -0.3008
     10 H         141.8118  143.9655  163.3391 H       1  UNL1        0.1497
     11 C         140.4807  140.8931  167.3458 C.ar    1  UNL1        0.1306
     12 C         140.9020  142.3122  167.5878 C.ar    1  UNL1        0.0110
     13 C         140.6789  143.3516  166.5296 C.ar    1  UNL1        0.0032
     14 C         140.0346  142.9720  165.2294 C.ar    1  UNL1        0.0529
     15 C         139.6133  141.5529  164.9874 C.ar    1  UNL1        0.0032
     16 C         139.8364  140.5134  166.0456 C.ar    1  UNL1        0.0110
     17 C         141.5464  142.6919  168.8881 C.3     1  UNL1        0.0218
     18 C         142.8176  142.0252  168.4529 C.3     1  UNL1        0.0045
     19 C         140.2752  143.3585  169.3234 C.3     1  UNL1        0.0045
     20 C         142.1907  143.0716  170.1883 C.3     1  UNL1        0.0045
     21 C         139.4151  139.0942  165.8035 C.3     1  UNL1        0.0218
     22 C         138.0303  139.4248  166.2759 C.3     1  UNL1        0.0045
     23 C         140.7998  138.7637  165.3311 C.3     1  UNL1        0.0045
     24 C         138.9937  137.6752  165.5614 C.3     1  UNL1        0.0045
     25 C         139.8733  139.8646  169.6530 C.3     1  UNL1        0.2524
     26 O         140.7038  139.8536  168.4040 O.3     1  UNL1       -0.4721
     27 C         141.3914  142.6802  157.7388 C.3     1  UNL1        0.0721
     28 C         141.7533  141.3206  158.2588 C.3     1  UNL1        0.0173
     29 C         143.1842  140.9912  158.5651 C.3     1  UNL1        0.0014
     30 C         143.5309  139.6824  159.2107 C.3     1  UNL1        0.0007
     31 C         143.8491  139.6297  160.6755 C.3     1  UNL1        0.0087
     32 C         142.8946  140.2180  161.6721 C.3     1  UNL1        0.0446
     33 C         143.3668  141.2681  162.6334 C.ar    1  UNL1       -0.0183
     34 C         143.9056  142.5694  162.1175 C.ar    1  UNL1       -0.0017
     35 C         144.3778  143.6195  163.0789 C.ar    1  UNL1        0.0293
     36 C         144.3112  143.3684  164.5562 C.ar    1  UNL1        0.1401
     37 F         144.7834  144.4185  165.5176 F       1  UNL1       -0.2042
     38 C         143.7724  142.0670  165.0721 C.ar    1  UNL1        0.0293
     39 C         143.3002  141.0169  164.1107 C.ar    1  UNL1       -0.0017
     40 C         141.4680  139.7560  161.7071 C.ar    1  UNL1       -0.0183
     41 C         141.1556  138.2917  161.7968 C.ar    1  UNL1       -0.0017
     42 C         139.7290  137.8297  161.8319 C.ar    1  UNL1        0.0293
     43 C         138.6145  138.8322  161.7773 C.ar    1  UNL1        0.1401
     44 F         137.1879  138.3703  161.8123 F       1  UNL1       -0.2042
     45 C         138.9268  140.2967  161.6876 C.ar    1  UNL1        0.0293
     46 C         140.3534  140.7586  161.6525 C.ar    1  UNL1       -0.0017
@<TRIPOS>BOND
     1    25    26    1
     2    26    11    1
     3    11    12   ar
     4    12    17    1
     5    17    18    1
     6    17    19    1
     7    17    20    1
     8    12    13   ar
     9    13    14   ar
    10    14     7    1
    11     7     8    2
    12     7     9   am
    13     9     6    1
    14     6     1    1
    15     1     2    1
    16     2     3    1
    17     3     4    1
    18     4    27    1
    19    27    28    1
    20    28    29    1
    21    29    30    1
    22    30    31    1
    23    31    32    1
    24    32    33    1
    25    33    34   ar
    26    34    35   ar
    27    35    36   ar
    28    36    37    1
    29    36    38   ar
    30    38    39   ar
    31    32    40    1
    32    40    41   ar
    33    41    42   ar
    34    42    43   ar
    35    43    44    1
    36    43    45   ar
    37    45    46   ar
    38     4     5    1
    39    14    15   ar
    40    15    16   ar
    41    16    21    1
    42    21    22    1
    43    21    23    1
    44    21    24    1
    45    16    11   ar
    46     5     1    1
    47    39    33   ar
    48    46    40   ar
    49     9    10    1
@<TRIPOS>MOLECULE
*****
 46 49 0 0 0
SMALL
GASTEIGER

@<TRIPOS>ATOM
      1 C         140.7051  144.9994  160.6584 C.3     1  UNL1        0.0370
      2 C         140.3375  145.8787  159.5001 C.3     1  UNL1        0.0204
      3 C         140.5845  145.1087  158.2368 C.3     1  UNL1        0.0722
      4 N         141.1048  143.7534  158.6143 N.3     1  UNL1       -0.2726
      5 C         141.1793  143.6858  160.1110 C.3     1  UNL1        0.0738
      6 C         140.6144  145.3688  162.1094 C.3     1  UNL1        0.0911
      7 C         139.7845  144.0181  164.1678 C.2     1  UNL1        0.2458
      8 O         138.4736  144.7453  164.1164 O.2     1  UNL1       -0.2701
      9 N         140.8549  144.3298  163.1643 N.am    1  UNL1       -0.3008
     10 H         141.7152  143.8525  163.1980 H       1  UNL1        0.1497
     11 C         140.5059  140.9011  167.3323 C.ar    1  UNL1        0.1306
     12 C         140.9203  142.3227  167.5715 C.ar    1  UNL1        0.0110
     13 C         140.6798  143.3617  166.5167 C.ar    1  UNL1        0.0032
     14 C         140.0249  142.9791  165.2226 C.ar    1  UNL1        0.0529
     15 C         139.6105  141.5575  164.9834 C.ar    1  UNL1        0.0032
     16 C         139.8510  140.5185  166.0382 C.ar    1  UNL1        0.0110
     17 C         141.5752  142.7054  168.8657 C.3     1  UNL1        0.0218
     18 C         142.8540  142.0699  168.4065 C.3     1  UNL1        0.0045
     19 C         140.2965  143.3408  169.3248 C.3     1  UNL1        0.0045
     20 C         142.2301  143.0881  170.1597 C.3     1  UNL1        0.0045
     21 C         139.4365  139.0968  165.7989 C.3     1  UNL1        0.0218
     22 C         140.8483  138.7471  165.4321 C.3     1  UNL1        0.0045
     23 C         138.0248  139.4466  166.1657 C.3     1  UNL1        0.0045
     24 C         139.0221  137.6752  165.5596 C.3     1  UNL1        0.0045
     25 C         139.9236  139.8623  169.6413 C.3     1  UNL1        0.2524
     26 O         140.7463  139.8621  168.3871 O.3     1  UNL1       -0.4721
     27 C         141.4840  142.6579  157.6624 C.3     1  UNL1        0.0721
     28 C         141.8837  141.3115  158.1891 C.3     1  UNL1        0.0173
     29 C         143.2603  141.1031  158.7473 C.3     1  UNL1        0.0014
     30 C         143.6531  139.7623  159.2932 C.3     1  UNL1        0.0007
     31 C         143.9001  139.5941  160.7631 C.3     1  UNL1        0.0087
     32 C         142.9381  140.1747  161.7567 C.3     1  UNL1        0.0446
     33 C         141.5128  139.7081  161.7817 C.ar    1  UNL1       -0.0183
     34 C         141.2042  138.2483  161.9358 C.ar    1  UNL1       -0.0017
     35 C         139.7788  137.7817  161.9608 C.ar    1  UNL1        0.0293
     36 C         138.6621  138.7748  161.8317 C.ar    1  UNL1        0.1401
     37 F         137.2367  138.3081  161.8567 F       1  UNL1       -0.2042
     38 C         138.9707  140.2345  161.6776 C.ar    1  UNL1        0.0293
     39 C         140.3961  140.7012  161.6526 C.ar    1  UNL1       -0.0017
     40 C         143.4014  141.2221  162.7253 C.ar    1  UNL1       -0.0183
     41 C         143.9630  142.5172  162.2179 C.ar    1  UNL1       -0.0017
     42 C         144.4264  143.5646  163.1865 C.ar    1  UNL1        0.0293
     43 C         144.3282  143.3170  164.6626 C.ar    1  UNL1        0.1401
     44 F         144.7915  144.3644  165.6312 F       1  UNL1       -0.2042
     45 C         143.7666  142.0220  165.1701 C.ar    1  UNL1        0.0293
     46 C         143.3032  140.9746  164.2015 C.ar    1  UNL1       -0.0017
@<TRIPOS>BOND
     1    25    26    1
     2    26    11    1
     3    11    12   ar
     4    12    17    1
     5    17    18    1
     6    17    19    1
     7    17    20    1
     8    12    13   ar
     9    13    14   ar
    10    14     7    1
    11     7     8    2
    12     7     9   am
    13     9     6    1
    14     6     1    1
    15     1     2    1
    16     2     3    1
    17     3     4    1
    18     4    27    1
    19    27    28    1
    20    28    29    1
    21    29    30    1
    22    30    31    1
    23    31    32    1
    24    32    33    1
    25    33    34   ar
    26    34    35   ar
    27    35    36   ar
    28    36    37    1
    29    36    38   ar
    30    38    39   ar
    31    32    40    1
    32    40    41   ar
    33    41    42   ar
    34    42    43   ar
    35    43    44    1
    36    43    45   ar
    37    45    46   ar
    38     4     5    1
    39    14    15   ar
    40    15    16   ar
    41    16    21    1
    42    21    22    1
    43    21    23    1
    44    21    24    1
    45    16    11   ar
    46     5     1    1
    47    39    33   ar
    48    46    40   ar
    49     9    10    1
@<TRIPOS>MOLECULE
*****
 46 49 0 0 0
SMALL
GASTEIGER

@<TRIPOS>ATOM
      1 C         140.1566  145.1159  160.9317 C.3     1  UNL1        0.0370
      2 C         140.7472  145.8796  159.7836 C.3     1  UNL1        0.0204
      3 C         140.5147  145.0873  158.5314 C.3     1  UNL1        0.0722
      4 N         139.7804  143.8339  158.9055 N.3     1  UNL1       -0.2726
      5 C         139.5591  143.8516  160.3890 C.3     1  UNL1        0.0738
      6 C         140.1625  145.5419  162.3700 C.3     1  UNL1        0.0911
      7 C         139.3928  143.8179  164.1548 C.2     1  UNL1        0.2458
      8 O         137.9615  144.0794  163.7900 O.2     1  UNL1       -0.2701
      9 N         140.4933  144.5492  163.4448 N.am    1  UNL1       -0.3008
     10 H         141.4327  144.3776  163.6842 H       1  UNL1        0.1497
     11 C         140.3850  140.8398  167.3791 C.ar    1  UNL1        0.1306
     12 C         139.6676  140.3926  166.1401 C.ar    1  UNL1        0.0110
     13 C         139.3368  141.3853  165.0653 C.ar    1  UNL1        0.0032
     14 C         139.7235  142.8252  165.2296 C.ar    1  UNL1        0.0529
     15 C         140.4409  143.2725  166.4686 C.ar    1  UNL1        0.0032
     16 C         140.7716  142.2798  167.5434 C.ar    1  UNL1        0.0110
     17 C         139.2808  138.9526  165.9758 C.3     1  UNL1        0.0218
     18 C         140.6221  138.6614  165.3706 C.3     1  UNL1        0.0045
     19 C         137.9396  139.2438  166.5810 C.3     1  UNL1        0.0045
     20 C         138.8941  137.5127  165.8115 C.3     1  UNL1        0.0045
     21 C         141.4891  142.7271  168.7825 C.3     1  UNL1        0.0218
     22 C         140.2144  143.3185  169.3070 C.3     1  UNL1        0.0045
     23 C         142.7638  142.1356  168.2579 C.3     1  UNL1        0.0045
     24 C         142.2065  143.1744  170.0215 C.3     1  UNL1        0.0045
     25 C         139.9463  139.8516  169.7415 C.3     1  UNL1        0.2524
     26 O         140.7157  139.8471  168.4539 O.3     1  UNL1       -0.4721
     27 C         139.3441  142.7526  157.9619 C.3     1  UNL1        0.0721
     28 C         140.2683  142.2867  156.8762 C.3     1  UNL1        0.0173
     29 C         141.5200  141.5381  157.2269 C.3     1  UNL1        0.0014
     30 C         141.6464  140.8737  158.5658 C.3     1  UNL1        0.0007
     31 C         142.4413  141.5289  159.6560 C.3     1  UNL1        0.0087
     32 C         142.0792  141.2948  161.0927 C.3     1  UNL1        0.0446
     33 C         141.0469  140.2663  161.4480 C.ar    1  UNL1       -0.0183
     34 C         139.6143  140.6726  161.6281 C.ar    1  UNL1       -0.0017
     35 C         138.5819  139.6440  161.9835 C.ar    1  UNL1        0.0293
     36 C         138.9822  138.2090  162.1587 C.ar    1  UNL1        0.1401
     37 F         137.9499  137.1804  162.5140 F       1  UNL1       -0.2042
     38 C         140.4148  137.8027  161.9786 C.ar    1  UNL1        0.0293
     39 C         141.4472  138.8313  161.6232 C.ar    1  UNL1       -0.0017
     40 C         142.7494  142.0894  162.1741 C.ar    1  UNL1       -0.0183
     41 C         143.3822  143.4106  161.8516 C.ar    1  UNL1       -0.0017
     42 C         144.0524  144.2052  162.9329 C.ar    1  UNL1        0.0293
     43 C         144.0900  143.6786  164.3369 C.ar    1  UNL1        0.1401
     44 F         144.7603  144.4732  165.4183 F       1  UNL1       -0.2042
     45 C         143.4573  142.3573  164.6595 C.ar    1  UNL1        0.0293
     46 C         142.7871  141.5627  163.5782 C.ar    1  UNL1       -0.0017
@<TRIPOS>BOND
     1    25    26    1
     2    26    11    1
     3    11    12   ar
     4    12    17    1
     5    17    18    1
     6    17    19    1
     7    17    20    1
     8    12    13   ar
     9    13    14   ar
    10    14     7    1
    11     7     8    2
    12     7     9   am
    13     9     6    1
    14     6     1    1
    15     1     2    1
    16     2     3    1
    17     3     4    1
    18     4    27    1
    19    27    28    1
    20    28    29    1
    21    29    30    1
    22    30    31    1
    23    31    32    1
    24    32    33    1
    25    33    34   ar
    26    34    35   ar
    27    35    36   ar
    28    36    37    1
    29    36    38   ar
    30    38    39   ar
    31    32    40    1
    32    40    41   ar
    33    41    42   ar
    34    42    43   ar
    35    43    44    1
    36    43    45   ar
    37    45    46   ar
    38     4     5    1
    39    14    15   ar
    40    15    16   ar
    41    16    21    1
    42    21    22    1
    43    21    23    1
    44    21    24    1
    45    16    11   ar
    46     5     1    1
    47    39    33   ar
    48    46    40   ar
    49     9    10    1
@<TRIPOS>MOLECULE
*****
 46 49 0 0 0
SMALL
GASTEIGER

@<TRIPOS>ATOM
      1 C         138.2236  140.9496  159.7268 C.3     1  UNL1        0.0370
      2 C         138.4609  139.9616  158.6234 C.3     1  UNL1        0.0204
      3 C         138.8535  140.7255  157.3937 C.3     1  UNL1        0.0722
      4 N         138.8588  142.1857  157.7371 N.3     1  UNL1       -0.2726
      5 C         138.4695  142.3241  159.1790 C.3     1  UNL1        0.0738
      6 C         137.8125  140.6207  161.1315 C.3     1  UNL1        0.0911
      7 C         138.5776  141.0113  163.5834 C.2     1  UNL1        0.2458
      8 O         137.2647  141.6697  163.8882 O.2     1  UNL1       -0.2701
      9 N         138.8515  140.4869  162.2051 N.am    1  UNL1       -0.3008
     10 H         139.7132  140.0548  162.0051 H       1  UNL1        0.1497
     11 C         141.6945  140.6097  166.8043 C.ar    1  UNL1        0.1306
     12 C         142.0370  140.2740  165.3831 C.ar    1  UNL1        0.0110
     13 C         140.9981  140.4079  164.3094 C.ar    1  UNL1        0.0032
     14 C         139.6166  140.8775  164.6571 C.ar    1  UNL1        0.0529
     15 C         139.2740  141.2132  166.0783 C.ar    1  UNL1        0.0032
     16 C         140.3130  141.0793  167.1519 C.ar    1  UNL1        0.0110
     17 C         143.4186  139.8044  165.0354 C.3     1  UNL1        0.0218
     18 C         143.8958  141.2262  165.0109 C.3     1  UNL1        0.0045
     19 C         142.9414  138.3825  165.0599 C.3     1  UNL1        0.0045
     20 C         144.8000  139.3347  164.6877 C.3     1  UNL1        0.0045
     21 C         139.9704  141.4151  168.5732 C.3     1  UNL1        0.0218
     22 C         140.5695  142.7786  168.3954 C.3     1  UNL1        0.0045
     23 C         139.3712  140.0515  168.7509 C.3     1  UNL1        0.0045
     24 C         139.6278  141.7509  169.9944 C.3     1  UNL1        0.0045
     25 C         142.8460  139.1994  168.6576 C.3     1  UNL1        0.2524
     26 O         142.7334  140.4758  167.8779 O.3     1  UNL1       -0.4721
     27 C         139.1945  143.3099  156.8026 C.3     1  UNL1        0.0721
     28 C         140.6032  143.8179  156.7159 C.3     1  UNL1        0.0173
     29 C         141.6950  143.1363  157.4862 C.3     1  UNL1        0.0014
     30 C         142.4094  143.8693  158.5827 C.3     1  UNL1        0.0007
     31 C         141.6552  144.3214  159.7978 C.3     1  UNL1        0.0087
     32 C         141.5942  143.4434  161.0125 C.3     1  UNL1        0.0446
     33 C         142.3139  142.1275  161.0237 C.ar    1  UNL1       -0.0183
     34 C         141.5934  140.8751  160.6208 C.ar    1  UNL1       -0.0017
     35 C         142.3131  139.5591  160.6320 C.ar    1  UNL1        0.0293
     36 C         143.7534  139.4954  161.0461 C.ar    1  UNL1        0.1401
     37 F         144.4732  138.1794  161.0574 F       1  UNL1       -0.2042
     38 C         144.4740  140.7478  161.4491 C.ar    1  UNL1        0.0293
     39 C         143.7542  142.0638  161.4378 C.ar    1  UNL1       -0.0017
     40 C         140.8135  143.8815  162.2160 C.ar    1  UNL1       -0.0183
     41 C         141.4626  143.8919  163.5682 C.ar    1  UNL1       -0.0017
     42 C         140.6818  144.3300  164.7717 C.ar    1  UNL1        0.0293
     43 C         139.2518  144.7578  164.6230 C.ar    1  UNL1        0.1401
     44 F         138.4710  145.1959  165.8265 F       1  UNL1       -0.2042
     45 C         138.6026  144.7474  163.2708 C.ar    1  UNL1        0.0293
     46 C         139.3834  144.3092  162.0673 C.ar    1  UNL1       -0.0017
@<TRIPOS>BOND
     1    25    26    1
     2    26    11    1
     3    11    12   ar
     4    12    17    1
     5    17    18    1
     6    17    19    1
     7    17    20    1
     8    12    13   ar
     9    13    14   ar
    10    14     7    1
    11     7     8    2
    12     7     9   am
    13     9     6    1
    14     6     1    1
    15     1     2    1
    16     2     3    1
    17     3     4    1
    18     4    27    1
    19    27    28    1
    20    28    29    1
    21    29    30    1
    22    30    31    1
    23    31    32    1
    24    32    33    1
    25    33    34   ar
    26    34    35   ar
    27    35    36   ar
    28    36    37    1
    29    36    38   ar
    30    38    39   ar
    31    32    40    1
    32    40    41   ar
    33    41    42   ar
    34    42    43   ar
    35    43    44    1
    36    43    45   ar
    37    45    46   ar
    38     4     5    1
    39    14    15   ar
    40    15    16   ar
    41    16    21    1
    42    21    22    1
    43    21    23    1
    44    21    24    1
    45    16    11   ar
    46     5     1    1
    47    39    33   ar
    48    46    40   ar
    49     9    10    1
@<TRIPOS>MOLECULE
*****
 46 49 0 0 0
SMALL
GASTEIGER

@<TRIPOS>ATOM
      1 C         138.2884  141.1504  159.4843 C.3     1  UNL1        0.0370
      2 C         138.5093  140.2175  158.3306 C.3     1  UNL1        0.0204
      3 C         138.9081  141.0385  157.1403 C.3     1  UNL1        0.0722
      4 N         138.9338  142.4789  157.5583 N.3     1  UNL1       -0.2726
      5 C         138.5508  142.5480  159.0069 C.3     1  UNL1        0.0738
      6 C         137.8773  140.7551  160.8717 C.3     1  UNL1        0.0911
      7 C         138.6005  141.0481  163.3498 C.2     1  UNL1        0.2458
      8 O         137.2547  141.6256  163.6742 O.2     1  UNL1       -0.2701
      9 N         138.9118  140.6129  161.9485 N.am    1  UNL1       -0.3008
     10 H         139.7951  140.2339  161.7356 H       1  UNL1        0.1497
     11 C         141.7040  140.6215  166.5803 C.ar    1  UNL1        0.1306
     12 C         140.3134  141.0622  166.9297 C.ar    1  UNL1        0.0110
     13 C         139.2789  141.2044  165.8528 C.ar    1  UNL1        0.0032
     14 C         139.6350  140.9059  164.4266 C.ar    1  UNL1        0.0529
     15 C         141.0256  140.4652  164.0773 C.ar    1  UNL1        0.0032
     16 C         142.0600  140.3230  165.1541 C.ar    1  UNL1        0.0110
     17 C         139.9573  141.3607  168.3559 C.3     1  UNL1        0.0218
     18 C         140.5288  142.7398  168.2100 C.3     1  UNL1        0.0045
     19 C         139.3858  139.9816  168.5018 C.3     1  UNL1        0.0045
     20 C         139.6011  141.6591  169.7821 C.3     1  UNL1        0.0045
     21 C         143.4507  139.8823  164.8047 C.3     1  UNL1        0.0218
     22 C         142.9847  138.4576  164.7476 C.3     1  UNL1        0.0045
     23 C         143.9166  141.3069  164.8619 C.3     1  UNL1        0.0045
     24 C         144.8412  139.4415  164.4553 C.3     1  UNL1        0.0045
     25 C         142.8661  139.1874  168.4086 C.3     1  UNL1        0.2524
     26 O         142.7385  140.4792  167.6572 O.3     1  UNL1       -0.4721
     27 C         139.2815  143.6453  156.6816 C.3     1  UNL1        0.0721
     28 C         140.7071  143.8835  156.2807 C.3     1  UNL1        0.0173
     29 C         141.6191  144.6632  157.1809 C.3     1  UNL1        0.0014
     30 C         142.1066  144.0558  158.4628 C.3     1  UNL1        0.0007
     31 C         141.5675  144.5415  159.7755 C.3     1  UNL1        0.0087
     32 C         141.5598  143.6299  160.9667 C.3     1  UNL1        0.0446
     33 C         142.3270  142.3415  160.9302 C.ar    1  UNL1       -0.0183
     34 C         141.6510  141.0784  160.4859 C.ar    1  UNL1       -0.0017
     35 C         142.4183  139.7900  160.4493 C.ar    1  UNL1        0.0293
     36 C         143.8615  139.7647  160.8572 C.ar    1  UNL1        0.1401
     37 F         144.6288  138.4762  160.8207 F       1  UNL1       -0.2042
     38 C         144.5375  141.0278  161.3016 C.ar    1  UNL1        0.0293
     39 C         143.7703  142.3162  161.3381 C.ar    1  UNL1       -0.0017
     40 C         140.7849  144.0068  162.1945 C.ar    1  UNL1       -0.0183
     41 C         139.3422  144.4011  162.0793 C.ar    1  UNL1       -0.0017
     42 C         138.5673  144.7780  163.3070 C.ar    1  UNL1        0.0293
     43 C         139.2350  144.7606  164.6501 C.ar    1  UNL1        0.1401
     44 F         138.4600  145.1375  165.8778 F       1  UNL1       -0.2042
     45 C         140.6776  144.3662  164.7654 C.ar    1  UNL1        0.0293
     46 C         141.4526  143.9893  163.5377 C.ar    1  UNL1       -0.0017
@<TRIPOS>BOND
     1    25    26    1
     2    26    11    1
     3    11    12   ar
     4    12    17    1
     5    17    18    1
     6    17    19    1
     7    17    20    1
     8    12    13   ar
     9    13    14   ar
    10    14     7    1
    11     7     8    2
    12     7     9   am
    13     9     6    1
    14     6     1    1
    15     1     2    1
    16     2     3    1
    17     3     4    1
    18     4    27    1
    19    27    28    1
    20    28    29    1
    21    29    30    1
    22    30    31    1
    23    31    32    1
    24    32    33    1
    25    33    34   ar
    26    34    35   ar
    27    35    36   ar
    28    36    37    1
    29    36    38   ar
    30    38    39   ar
    31    32    40    1
    32    40    41   ar
    33    41    42   ar
    34    42    43   ar
    35    43    44    1
    36    43    45   ar
    37    45    46   ar
    38     4     5    1
    39    14    15   ar
    40    15    16   ar
    41    16    21    1
    42    21    22    1
    43    21    23    1
    44    21    24    1
    45    16    11   ar
    46     5     1    1
    47    39    33   ar
    48    46    40   ar
    49     9    10    1
