@<TRIPOS>MOLECULE
*****
 30 34 0 0 0
SMALL
GASTEIGER

@<TRIPOS>ATOM
      1 C         142.6106  138.2852  157.6239 C.2     1  UNL1        0.3578
      2 N         142.9145  139.5430  156.8652 N.2     1  UNL1       -0.0354
      3 C         143.6134  139.4691  155.5400 C.2     1  UNL1        0.2392
      4 C         144.0085  138.1376  154.9736 C.2     1  UNL1        0.0975
      5 C         143.7046  136.8798  155.7323 C.2     1  UNL1        0.2357
      6 N         143.9706  135.4352  155.4284 N.2     1  UNL1       -0.0340
      7 C         143.4361  134.6162  156.5658 C.2     1  UNL1        0.3712
      8 N         142.8397  135.5546  157.5726 N.2     1  UNL1       -0.0428
      9 C         143.0057  136.9536  157.0574 C.3     1  UNL1        0.3825
     10 C         143.4887  133.1212  156.6768 C.ar    1  UNL1        0.0925
     11 C         142.5216  132.2770  155.9008 C.ar    1  UNL1        0.0375
     12 C         142.5743  130.7821  156.0119 C.ar    1  UNL1        0.1426
     13 F         141.6072  129.9378  155.2359 F       1  UNL1       -0.2041
     14 C         143.5940  130.1313  156.8988 C.ar    1  UNL1        0.0593
     15 C         144.5611  130.9755  157.6747 C.ar    1  UNL1        0.1426
     16 F         145.5808  130.3248  158.5616 F       1  UNL1       -0.2041
     17 C         144.5084  132.4704  157.5637 C.ar    1  UNL1        0.0375
     18 C         140.5137  138.5066  161.5994 C.3     1  UNL1        0.0658
     19 C         139.7650  138.8203  160.3380 C.3     1  UNL1        0.0669
     20 C         140.4640  138.7465  159.0128 C.3     1  UNL1        0.2035
     21 N         141.9117  138.3590  158.9491 N.pl3   1  UNL1       -0.1900
     22 C         142.6604  138.0453  160.2104 C.3     1  UNL1        0.2035
     23 C         141.9614  138.1191  161.5356 C.3     1  UNL1        0.0669
     24 C         137.7178  138.8018  166.8999 C.3     1  UNL1        0.0897
     25 N         138.4168  138.7280  165.5748 N.3     1  UNL1       -0.2691
     26 C         138.4354  139.9235  164.6690 C.3     1  UNL1        0.0897
     27 C         139.1344  139.8497  163.3438 C.3     1  UNL1        0.0896
     28 N         139.8148  138.5804  162.9245 N.3     1  UNL1       -0.2713
     29 C         139.7962  137.3848  163.8302 C.3     1  UNL1        0.0896
     30 C         139.0972  137.4586  165.1553 C.3     1  UNL1        0.0897
@<TRIPOS>BOND
     1    24    25    1
     2    25    26    1
     3    26    27    1
     4    27    28    1
     5    28    18    1
     6    18    19    1
     7    19    20    1
     8    20    21    1
     9    21     1    1
    10     1     2    2
    11     2     3    1
    12     3     4    2
    13     4     5    1
    14     5     6    2
    15     6     7    1
    16     7    10    1
    17    10    11   ar
    18    11    12   ar
    19    12    13    1
    20    12    14   ar
    21    14    15   ar
    22    15    16    1
    23    15    17   ar
    24     7     8    2
    25     8     9    1
    26    21    22    1
    27    22    23    1
    28    28    29    1
    29    29    30    1
    30    30    25    1
    31    23    18    1
    32     9     1    1
    33     9     5    1
    34    17    10   ar
@<TRIPOS>MOLECULE
*****
 30 34 0 0 0
SMALL
GASTEIGER

@<TRIPOS>ATOM
      1 C         142.6058  138.2517  157.6213 C.2     1  UNL1        0.3578
      2 N         142.9023  139.5099  156.8603 N.2     1  UNL1       -0.0354
      3 C         143.5995  139.4376  155.5342 C.2     1  UNL1        0.2392
      4 C         144.0002  138.1072  154.9690 C.2     1  UNL1        0.0975
      5 C         143.7036  136.8490  155.7300 C.2     1  UNL1        0.2357
      6 N         143.9763  135.4053  155.4277 N.2     1  UNL1       -0.0340
      7 C         143.4475  134.5853  156.5670 C.2     1  UNL1        0.3712
      8 N         142.8481  135.5222  157.5735 N.2     1  UNL1       -0.0428
      9 C         143.0064  136.9213  157.0561 C.3     1  UNL1        0.3825
     10 C         143.5077  133.0907  156.6801 C.ar    1  UNL1        0.0925
     11 C         144.5238  132.4466  157.5759 C.ar    1  UNL1        0.0375
     12 C         144.5838  130.9521  157.6889 C.ar    1  UNL1        0.1426
     13 F         145.6000  130.3079  158.5848 F       1  UNL1       -0.2041
     14 C         143.6278  130.1017  156.9060 C.ar    1  UNL1        0.0593
     15 C         142.6118  130.7458  156.0101 C.ar    1  UNL1        0.1426
     16 F         141.6558  129.8954  155.2273 F       1  UNL1       -0.2041
     17 C         142.5517  132.2403  155.8972 C.ar    1  UNL1        0.0375
     18 C         140.5140  138.4684  161.5998 C.3     1  UNL1        0.0658
     19 C         139.7797  138.8383  160.3451 C.3     1  UNL1        0.0669
     20 C         140.4770  138.7661  159.0190 C.3     1  UNL1        0.2035
     21 N         141.9085  138.3239  158.9475 N.pl3   1  UNL1       -0.1900
     22 C         142.6428  137.9540  160.2020 C.3     1  UNL1        0.2035
     23 C         141.9456  138.0263  161.5282 C.3     1  UNL1        0.0669
     24 C         137.7250  138.7573  166.9042 C.3     1  UNL1        0.0897
     25 N         138.4223  138.6851  165.5781 N.3     1  UNL1       -0.2691
     26 C         139.0942  137.4134  165.1523 C.3     1  UNL1        0.0897
     27 C         139.7914  137.3412  163.8261 C.3     1  UNL1        0.0896
     28 N         139.8168  138.5407  162.9258 N.3     1  UNL1       -0.2713
     29 C         139.1449  139.8124  163.3517 C.3     1  UNL1        0.0896
     30 C         138.4477  139.8846  164.6778 C.3     1  UNL1        0.0897
@<TRIPOS>BOND
     1    24    25    1
     2    25    26    1
     3    26    27    1
     4    27    28    1
     5    28    18    1
     6    18    19    1
     7    19    20    1
     8    20    21    1
     9    21     1    1
    10     1     2    2
    11     2     3    1
    12     3     4    2
    13     4     5    1
    14     5     6    2
    15     6     7    1
    16     7    10    1
    17    10    11   ar
    18    11    12   ar
    19    12    13    1
    20    12    14   ar
    21    14    15   ar
    22    15    16    1
    23    15    17   ar
    24     7     8    2
    25     8     9    1
    26    21    22    1
    27    22    23    1
    28    28    29    1
    29    29    30    1
    30    30    25    1
    31    23    18    1
    32     9     1    1
    33     9     5    1
    34    17    10   ar
@<TRIPOS>MOLECULE
*****
 30 34 0 0 0
SMALL
GASTEIGER

@<TRIPOS>ATOM
      1 C         139.0685  142.2475  162.2118 C.2     1  UNL1        0.3578
      2 N         138.2006  143.4062  161.8192 N.2     1  UNL1       -0.0354
      3 C         137.7508  144.3917  162.8567 C.2     1  UNL1        0.2392
      4 C         138.1688  144.2185  164.2868 C.2     1  UNL1        0.0975
      5 C         139.0368  143.0598  164.6794 C.2     1  UNL1        0.2357
      6 N         139.6039  142.6331  166.0008 N.2     1  UNL1       -0.0340
      7 C         140.4043  141.3838  165.7800 C.2     1  UNL1        0.3712
      8 N         140.3318  141.0385  164.3221 N.2     1  UNL1       -0.0428
      9 C         139.4866  142.0744  163.6419 C.3     1  UNL1        0.3825
     10 C         141.1468  140.6148  166.8324 C.ar    1  UNL1        0.0925
     11 C         142.2316  139.6576  166.4366 C.ar    1  UNL1        0.0375
     12 C         142.9740  138.8887  167.4890 C.ar    1  UNL1        0.1426
     13 F         144.0589  137.9313  167.0932 F       1  UNL1       -0.2041
     14 C         142.6316  139.0771  168.9372 C.ar    1  UNL1        0.0593
     15 C         141.5468  140.0343  169.3330 C.ar    1  UNL1        0.1426
     16 F         141.2044  140.2227  170.7812 F       1  UNL1       -0.2041
     17 C         140.8044  140.8032  168.2806 C.ar    1  UNL1        0.0375
     18 C         140.4182  139.2909  159.0993 C.3     1  UNL1        0.0658
     19 C         139.1720  139.0290  159.8923 C.3     1  UNL1        0.0669
     20 C         138.7222  140.0145  160.9297 C.3     1  UNL1        0.2035
     21 N         139.5184  141.2620  161.1743 N.pl3   1  UNL1       -0.1900
     22 C         140.7645  141.5239  160.3814 C.3     1  UNL1        0.2035
     23 C         141.2144  140.5384  159.3439 C.3     1  UNL1        0.0669
     24 C         142.2176  135.3487  154.9495 C.3     1  UNL1        0.0897
     25 N         141.7677  136.3343  155.9870 N.3     1  UNL1       -0.2691
     26 C         142.7315  136.8181  157.0296 C.3     1  UNL1        0.0897
     27 C         142.2816  137.8037  158.0671 C.3     1  UNL1        0.0896
     28 N         140.8680  138.3054  158.0619 N.3     1  UNL1       -0.2713
     29 C         139.9042  137.8215  157.0193 C.3     1  UNL1        0.0896
     30 C         140.3541  136.8360  155.9818 C.3     1  UNL1        0.0897
@<TRIPOS>BOND
     1    24    25    1
     2    25    26    1
     3    26    27    1
     4    27    28    1
     5    28    18    1
     6    18    19    1
     7    19    20    1
     8    20    21    1
     9    21     1    1
    10     1     2    2
    11     2     3    1
    12     3     4    2
    13     4     5    1
    14     5     6    2
    15     6     7    1
    16     7    10    1
    17    10    11   ar
    18    11    12   ar
    19    12    13    1
    20    12    14   ar
    21    14    15   ar
    22    15    16    1
    23    15    17   ar
    24     7     8    2
    25     8     9    1
    26    21    22    1
    27    22    23    1
    28    28    29    1
    29    29    30    1
    30    30    25    1
    31    23    18    1
    32     9     1    1
    33     9     5    1
    34    17    10   ar
@<TRIPOS>MOLECULE
*****
 30 34 0 0 0
SMALL
GASTEIGER

@<TRIPOS>ATOM
      1 C         139.0612  142.2383  162.2162 C.2     1  UNL1        0.3578
      2 N         138.1933  143.3971  161.8239 N.2     1  UNL1       -0.0354
      3 C         137.7456  144.3837  162.8613 C.2     1  UNL1        0.2392
      4 C         138.1657  144.2115  164.2909 C.2     1  UNL1        0.0975
      5 C         139.0336  143.0527  164.6832 C.2     1  UNL1        0.2357
      6 N         139.6025  142.6268  166.0041 N.2     1  UNL1       -0.0340
      7 C         140.4019  141.3769  165.7832 C.2     1  UNL1        0.3712
      8 N         140.3270  141.0304  164.3257 N.2     1  UNL1       -0.0428
      9 C         139.4814  142.0662  163.6459 C.3     1  UNL1        0.3825
     10 C         141.1455  140.6084  166.8351 C.ar    1  UNL1        0.0925
     11 C         140.7995  140.7916  168.2831 C.ar    1  UNL1        0.0375
     12 C         141.5431  140.0232  169.3349 C.ar    1  UNL1        0.1426
     13 F         141.1971  140.2063  170.7830 F       1  UNL1       -0.2041
     14 C         142.6328  139.0715  168.9388 C.ar    1  UNL1        0.0593
     15 C         142.9789  138.8883  167.4909 C.ar    1  UNL1        0.1426
     16 F         144.0686  137.9367  167.0947 F       1  UNL1       -0.2041
     17 C         142.2352  139.6568  166.4390 C.ar    1  UNL1        0.0375
     18 C         140.4046  139.2784  159.1042 C.3     1  UNL1        0.0658
     19 C         140.9706  140.6676  159.1119 C.3     1  UNL1        0.0669
     20 C         140.5228  141.6542  160.1492 C.3     1  UNL1        0.2035
     21 N         139.5090  141.2517  161.1789 N.pl3   1  UNL1       -0.1900
     22 C         138.9430  139.8626  161.1712 C.3     1  UNL1        0.2035
     23 C         139.3909  138.8759  160.1339 C.3     1  UNL1        0.0669
     24 C         142.1960  135.3320  154.9549 C.3     1  UNL1        0.0897
     25 N         141.7481  136.3186  155.9922 N.3     1  UNL1       -0.2691
     26 C         142.7002  136.7674  157.0609 C.3     1  UNL1        0.0897
     27 C         142.2523  137.7540  158.0983 C.3     1  UNL1        0.0896
     28 N         140.8525  138.2918  158.0669 N.3     1  UNL1       -0.2713
     29 C         139.9004  137.8431  156.9981 C.3     1  UNL1        0.0896
     30 C         140.3482  136.8565  155.9608 C.3     1  UNL1        0.0897
@<TRIPOS>BOND
     1    24    25    1
     2    25    26    1
     3    26    27    1
     4    27    28    1
     5    28    18    1
     6    18    19    1
     7    19    20    1
     8    20    21    1
     9    21     1    1
    10     1     2    2
    11     2     3    1
    12     3     4    2
    13     4     5    1
    14     5     6    2
    15     6     7    1
    16     7    10    1
    17    10    11   ar
    18    11    12   ar
    19    12    13    1
    20    12    14   ar
    21    14    15   ar
    22    15    16    1
    23    15    17   ar
    24     7     8    2
    25     8     9    1
    26    21    22    1
    27    22    23    1
    28    28    29    1
    29    29    30    1
    30    30    25    1
    31    23    18    1
    32     9     1    1
    33     9     5    1
    34    17    10   ar
@<TRIPOS>MOLECULE
*****
 30 34 0 0 0
SMALL
GASTEIGER

@<TRIPOS>ATOM
      1 C         142.9720  142.4059  162.0622 C.2     1  UNL1        0.3578
      2 N         143.8547  143.5684  161.7169 N.2     1  UNL1       -0.0354
      3 C         144.1345  144.6279  162.7412 C.2     1  UNL1        0.2392
      4 C         143.5315  144.5249  164.1108 C.2     1  UNL1        0.0975
      5 C         142.6488  143.3623  164.4561 C.2     1  UNL1        0.2357
      6 N         141.9194  142.9948  165.7143 N.2     1  UNL1       -0.0340
      7 C         141.1889  141.7081  165.4676 C.2     1  UNL1        0.3712
      8 N         141.4667  141.2805  164.0570 N.2     1  UNL1       -0.0428
      9 C         142.3690  142.3029  163.4319 C.3     1  UNL1        0.3825
     10 C         140.3311  140.9774  166.4577 C.ar    1  UNL1        0.0925
     11 C         140.4651  141.2666  167.9235 C.ar    1  UNL1        0.0375
     12 C         139.6074  140.5359  168.9135 C.ar    1  UNL1        0.1426
     13 F         139.7414  140.8251  170.3793 F       1  UNL1       -0.2041
     14 C         138.6155  139.5161  168.4379 C.ar    1  UNL1        0.0593
     15 C         138.4815  139.2269  166.9722 C.ar    1  UNL1        0.1426
     16 F         137.4897  138.2071  166.4965 F       1  UNL1       -0.2041
     17 C         139.3393  139.9576  165.9821 C.ar    1  UNL1        0.0375
     18 C         142.1325  139.2273  158.9894 C.3     1  UNL1        0.0658
     19 C         141.1459  140.3353  159.2113 C.3     1  UNL1        0.0669
     20 C         141.4257  141.3948  160.2355 C.3     1  UNL1        0.2035
     21 N         142.6922  141.3464  161.0379 N.pl3   1  UNL1       -0.1900
     22 C         143.6787  140.2385  160.8161 C.3     1  UNL1        0.2035
     23 C         143.3989  139.1790  159.7918 C.3     1  UNL1        0.0669
     24 C         141.0131  134.9894  154.8922 C.3     1  UNL1        0.0897
     25 N         141.2930  136.0489  155.9165 N.3     1  UNL1       -0.2691
     26 C         140.2956  137.1436  156.1550 C.3     1  UNL1        0.0897
     27 C         140.5755  138.2032  157.1793 C.3     1  UNL1        0.0896
     28 N         141.8527  138.1679  157.9651 N.3     1  UNL1       -0.2713
     29 C         142.8500  137.0731  157.7266 C.3     1  UNL1        0.0896
     30 C         142.5702  136.0137  156.7024 C.3     1  UNL1        0.0897
@<TRIPOS>BOND
     1    24    25    1
     2    25    26    1
     3    26    27    1
     4    27    28    1
     5    28    18    1
     6    18    19    1
     7    19    20    1
     8    20    21    1
     9    21     1    1
    10     1     2    2
    11     2     3    1
    12     3     4    2
    13     4     5    1
    14     5     6    2
    15     6     7    1
    16     7    10    1
    17    10    11   ar
    18    11    12   ar
    19    12    13    1
    20    12    14   ar
    21    14    15   ar
    22    15    16    1
    23    15    17   ar
    24     7     8    2
    25     8     9    1
    26    21    22    1
    27    22    23    1
    28    28    29    1
    29    29    30    1
    30    30    25    1
    31    23    18    1
    32     9     1    1
    33     9     5    1
    34    17    10   ar
@<TRIPOS>MOLECULE
*****
 30 34 0 0 0
SMALL
GASTEIGER

@<TRIPOS>ATOM
      1 C         138.8892  142.8360  157.0361 C.2     1  UNL1        0.3578
      2 N         138.7438  141.6995  156.0680 N.2     1  UNL1       -0.0354
      3 C         138.6692  140.2891  156.5730 C.2     1  UNL1        0.2392
      4 C         138.7399  140.0152  158.0461 C.2     1  UNL1        0.0975
      5 C         138.8853  141.1517  159.0142 C.2     1  UNL1        0.2357
      6 N         138.9808  141.1895  160.5106 N.2     1  UNL1       -0.0340
      7 C         139.1146  142.6233  160.9305 C.2     1  UNL1        0.3712
      8 N         139.1016  143.4717  159.6935 N.2     1  UNL1       -0.0428
      9 C         138.9599  142.5621  158.5091 C.3     1  UNL1        0.3825
     10 C         139.2393  143.1213  162.3399 C.ar    1  UNL1        0.0925
     11 C         138.0224  143.5930  163.0792 C.ar    1  UNL1        0.0375
     12 C         138.1472  144.0910  164.4886 C.ar    1  UNL1        0.1426
     13 F         136.9302  144.5627  165.2279 F       1  UNL1       -0.2041
     14 C         139.4889  144.1173  165.1587 C.ar    1  UNL1        0.0593
     15 C         140.7058  143.6457  164.4194 C.ar    1  UNL1        0.1426
     16 F         142.0476  143.6720  165.0896 F       1  UNL1       -0.2041
     17 C         140.5810  143.1477  163.0101 C.ar    1  UNL1        0.0375
     18 C         139.1131  147.0675  155.5211 C.3     1  UNL1        0.0658
     19 C         140.0926  146.5865  156.5504 C.3     1  UNL1        0.0669
     20 C         140.0179  145.1760  157.0554 C.3     1  UNL1        0.2035
     21 N         138.9638  144.2465  156.5311 N.pl3   1  UNL1       -0.1900
     22 C         137.9844  144.7274  155.5018 C.3     1  UNL1        0.2035
     23 C         138.0590  146.1380  154.9968 C.3     1  UNL1        0.0669
     24 C         139.4118  152.7094  153.5013 C.3     1  UNL1        0.0897
     25 N         139.3371  151.2989  154.0063 N.3     1  UNL1       -0.2691
     26 C         138.6772  151.0070  155.3213 C.3     1  UNL1        0.0897
     27 C         138.6026  149.5965  155.8263 C.3     1  UNL1        0.0896
     28 N         139.1878  148.4779  155.0162 N.3     1  UNL1       -0.2713
     29 C         139.8477  148.7698  153.7011 C.3     1  UNL1        0.0896
     30 C         139.9224  150.1803  153.1962 C.3     1  UNL1        0.0897
@<TRIPOS>BOND
     1    24    25    1
     2    25    26    1
     3    26    27    1
     4    27    28    1
     5    28    18    1
     6    18    19    1
     7    19    20    1
     8    20    21    1
     9    21     1    1
    10     1     2    2
    11     2     3    1
    12     3     4    2
    13     4     5    1
    14     5     6    2
    15     6     7    1
    16     7    10    1
    17    10    11   ar
    18    11    12   ar
    19    12    13    1
    20    12    14   ar
    21    14    15   ar
    22    15    16    1
    23    15    17   ar
    24     7     8    2
    25     8     9    1
    26    21    22    1
    27    22    23    1
    28    28    29    1
    29    29    30    1
    30    30    25    1
    31    23    18    1
    32     9     1    1
    33     9     5    1
    34    17    10   ar
@<TRIPOS>MOLECULE
*****
 30 34 0 0 0
SMALL
GASTEIGER

@<TRIPOS>ATOM
      1 C         142.8766  142.4756  162.0559 C.2     1  UNL1        0.3578
      2 N         143.7453  143.6475  161.7068 N.2     1  UNL1       -0.0354
      3 C         144.0188  144.7095  162.7302 C.2     1  UNL1        0.2392
      4 C         143.4235  144.5995  164.1026 C.2     1  UNL1        0.0975
      5 C         142.5547  143.4276  164.4517 C.2     1  UNL1        0.2357
      6 N         141.8353  143.0520  165.7131 N.2     1  UNL1       -0.0340
      7 C         141.1172  141.7577  165.4694 C.2     1  UNL1        0.3712
      8 N         141.3928  141.3336  164.0573 N.2     1  UNL1       -0.0428
      9 C         142.2813  142.3657  163.4283 C.3     1  UNL1        0.3825
     10 C         140.2720  141.0177  166.4633 C.ar    1  UNL1        0.0925
     11 C         139.3125  139.9641  165.9948 C.ar    1  UNL1        0.0375
     12 C         138.4673  139.2241  166.9888 C.ar    1  UNL1        0.1426
     13 F         137.5078  138.1705  166.5203 F       1  UNL1       -0.2041
     14 C         138.5815  139.5377  168.4512 C.ar    1  UNL1        0.0593
     15 C         139.5409  140.5912  168.9197 C.ar    1  UNL1        0.1426
     16 F         139.6551  140.9047  170.3821 F       1  UNL1       -0.2041
     17 C         140.3861  141.3312  167.9257 C.ar    1  UNL1        0.0375
     18 C         142.0561  139.2894  158.9857 C.3     1  UNL1        0.0658
     19 C         142.9966  139.0126  160.1211 C.3     1  UNL1        0.0669
     20 C         143.2701  140.0746  161.1444 C.3     1  UNL1        0.2035
     21 N         142.6031  141.4135  161.0325 N.pl3   1  UNL1       -0.1900
     22 C         141.6626  141.6903  159.8972 C.3     1  UNL1        0.2035
     23 C         141.3891  140.6282  158.8738 C.3     1  UNL1        0.0669
     24 C         140.9623  135.0411  154.8924 C.3     1  UNL1        0.0897
     25 N         141.2358  136.1031  155.9157 N.3     1  UNL1       -0.2691
     26 C         142.5393  136.1118  156.6577 C.3     1  UNL1        0.0897
     27 C         142.8128  137.1739  157.6811 C.3     1  UNL1        0.0896
     28 N         141.7826  138.2273  157.9624 N.3     1  UNL1       -0.2713
     29 C         140.4791  138.2187  157.2204 C.3     1  UNL1        0.0896
     30 C         140.2056  137.1566  156.1971 C.3     1  UNL1        0.0897
@<TRIPOS>BOND
     1    24    25    1
     2    25    26    1
     3    26    27    1
     4    27    28    1
     5    28    18    1
     6    18    19    1
     7    19    20    1
     8    20    21    1
     9    21     1    1
    10     1     2    2
    11     2     3    1
    12     3     4    2
    13     4     5    1
    14     5     6    2
    15     6     7    1
    16     7    10    1
    17    10    11   ar
    18    11    12   ar
    19    12    13    1
    20    12    14   ar
    21    14    15   ar
    22    15    16    1
    23    15    17   ar
    24     7     8    2
    25     8     9    1
    26    21    22    1
    27    22    23    1
    28    28    29    1
    29    29    30    1
    30    30    25    1
    31    23    18    1
    32     9     1    1
    33     9     5    1
    34    17    10   ar
@<TRIPOS>MOLECULE
*****
 30 34 0 0 0
SMALL
GASTEIGER

@<TRIPOS>ATOM
      1 C         140.4149  143.0841  160.6796 C.2     1  UNL1        0.3578
      2 N         140.4106  144.4168  159.9912 N.2     1  UNL1       -0.0354
      3 C         140.1647  145.6680  160.7810 C.2     1  UNL1        0.2392
      4 C         139.9232  145.5867  162.2591 C.2     1  UNL1        0.0975
      5 C         139.9275  144.2540  162.9475 C.2     1  UNL1        0.2357
      6 N         139.7213  143.8642  164.3812 N.2     1  UNL1       -0.0340
      7 C         139.8397  142.3719  164.4775 C.2     1  UNL1        0.3712
      8 N         140.1191  141.8395  163.1033 N.2     1  UNL1       -0.0428
      9 C         140.1734  143.0027  162.1578 C.3     1  UNL1        0.3825
     10 C         139.7027  141.5555  165.7285 C.ar    1  UNL1        0.0925
     11 C         138.9015  140.2875  165.7125 C.ar    1  UNL1        0.0375
     12 C         138.7646  139.4712  166.9634 C.ar    1  UNL1        0.1426
     13 F         137.9634  138.2031  166.9475 F       1  UNL1       -0.2041
     14 C         139.4288  139.9228  168.2302 C.ar    1  UNL1        0.0593
     15 C         140.2300  141.1908  168.2462 C.ar    1  UNL1        0.1426
     16 F         140.8942  141.6424  169.5130 F       1  UNL1       -0.2041
     17 C         140.3669  142.0071  166.9953 C.ar    1  UNL1        0.0375
     18 C         141.1525  139.3301  158.3102 C.3     1  UNL1        0.0658
     19 C         142.2403  139.8986  159.1726 C.3     1  UNL1        0.0669
     20 C         141.9944  141.1499  159.9623 C.3     1  UNL1        0.2035
     21 N         140.6608  141.8327  159.8898 N.pl3   1  UNL1       -0.1900
     22 C         139.5731  141.2642  159.0275 C.3     1  UNL1        0.2035
     23 C         139.8189  140.0129  158.2377 C.3     1  UNL1        0.0669
     24 C         142.1362  134.3248  155.1513 C.3     1  UNL1        0.0897
     25 N         141.8903  135.5761  155.9410 N.3     1  UNL1       -0.2691
     26 C         142.9108  136.0495  156.9332 C.3     1  UNL1        0.0897
     27 C         142.6649  137.3009  157.7229 C.3     1  UNL1        0.0896
     28 N         141.3985  138.0788  157.5205 N.3     1  UNL1       -0.2713
     29 C         140.3779  137.6053  156.5283 C.3     1  UNL1        0.0896
     30 C         140.6238  136.3540  155.7386 C.3     1  UNL1        0.0897
@<TRIPOS>BOND
     1    24    25    1
     2    25    26    1
     3    26    27    1
     4    27    28    1
     5    28    18    1
     6    18    19    1
     7    19    20    1
     8    20    21    1
     9    21     1    1
    10     1     2    2
    11     2     3    1
    12     3     4    2
    13     4     5    1
    14     5     6    2
    15     6     7    1
    16     7    10    1
    17    10    11   ar
    18    11    12   ar
    19    12    13    1
    20    12    14   ar
    21    14    15   ar
    22    15    16    1
    23    15    17   ar
    24     7     8    2
    25     8     9    1
    26    21    22    1
    27    22    23    1
    28    28    29    1
    29    29    30    1
    30    30    25    1
    31    23    18    1
    32     9     1    1
    33     9     5    1
    34    17    10   ar
@<TRIPOS>MOLECULE
*****
 30 34 0 0 0
SMALL
GASTEIGER

@<TRIPOS>ATOM
      1 C         140.2792  143.1902  160.7193 C.2     1  UNL1        0.3578
      2 N         140.2497  144.5252  160.0359 N.2     1  UNL1       -0.0354
      3 C         140.0152  145.7721  160.8360 C.2     1  UNL1        0.2392
      4 C         139.8103  145.6841  162.3193 C.2     1  UNL1        0.0975
      5 C         139.8399  144.3492  163.0026 C.2     1  UNL1        0.2357
      6 N         139.6711  143.9531  164.4395 N.2     1  UNL1       -0.0340
      7 C         139.8013  142.4613  164.5275 C.2     1  UNL1        0.3712
      8 N         140.0505  141.9354  163.1450 N.2     1  UNL1       -0.0428
      9 C         140.0743  143.1022  162.2026 C.3     1  UNL1        0.3825
     10 C         139.7000  141.6398  165.7785 C.ar    1  UNL1        0.0925
     11 C         140.3874  142.0941  167.0319 C.ar    1  UNL1        0.0375
     12 C         140.2861  141.2726  168.2827 C.ar    1  UNL1        0.1426
     13 F         140.9736  141.7269  169.5362 F       1  UNL1       -0.2041
     14 C         139.4975  139.9967  168.2802 C.ar    1  UNL1        0.0593
     15 C         138.8101  139.5423  167.0269 C.ar    1  UNL1        0.1426
     16 F         138.0214  138.2664  167.0244 F       1  UNL1       -0.2041
     17 C         138.9114  140.3638  165.7760 C.ar    1  UNL1        0.0375
     18 C         140.9825  139.4491  158.3192 C.3     1  UNL1        0.0658
     19 C         139.6064  139.7693  158.8232 C.3     1  UNL1        0.0669
     20 C         139.3720  141.0163  159.6232 C.3     1  UNL1        0.2035
     21 N         140.5137  141.9431  159.9192 N.pl3   1  UNL1       -0.1900
     22 C         141.8897  141.6230  159.4153 C.3     1  UNL1        0.2035
     23 C         142.1241  140.3759  158.6153 C.3     1  UNL1        0.0669
     24 C         141.9200  134.4610  155.1193 C.3     1  UNL1        0.0897
     25 N         141.6856  135.7080  155.9192 N.3     1  UNL1       -0.2691
     26 C         140.4093  136.4780  155.7514 C.3     1  UNL1        0.0897
     27 C         140.1749  137.7250  156.5514 C.3     1  UNL1        0.0896
     28 N         141.2169  138.2021  157.5193 N.3     1  UNL1       -0.2713
     29 C         142.4932  137.4322  157.6871 C.3     1  UNL1        0.0896
     30 C         142.7276  136.1852  156.8871 C.3     1  UNL1        0.0897
@<TRIPOS>BOND
     1    24    25    1
     2    25    26    1
     3    26    27    1
     4    27    28    1
     5    28    18    1
     6    18    19    1
     7    19    20    1
     8    20    21    1
     9    21     1    1
    10     1     2    2
    11     2     3    1
    12     3     4    2
    13     4     5    1
    14     5     6    2
    15     6     7    1
    16     7    10    1
    17    10    11   ar
    18    11    12   ar
    19    12    13    1
    20    12    14   ar
    21    14    15   ar
    22    15    16    1
    23    15    17   ar
    24     7     8    2
    25     8     9    1
    26    21    22    1
    27    22    23    1
    28    28    29    1
    29    29    30    1
    30    30    25    1
    31    23    18    1
    32     9     1    1
    33     9     5    1
    34    17    10   ar
