@<TRIPOS>MOLECULE
*****
 26 29 0 0 0
SMALL
GASTEIGER

@<TRIPOS>ATOM
      1 S         138.9573  138.8527  164.0634 S.O2    1  UNL1        0.0129
      2 O         139.0619  137.5038  164.7111 O.2     1  UNL1       -0.1683
      3 O         138.8528  140.2016  163.4158 O.2     1  UNL1       -0.1683
      4 C         139.3012  139.5063  165.3691 C.ar    1  UNL1        0.1060
      5 C         138.6224  139.0634  166.6312 C.ar    1  UNL1        0.0180
      6 C         138.9664  139.7170  167.9369 C.ar    1  UNL1       -0.0029
      7 C         139.9891  140.8135  167.9802 C.ar    1  UNL1       -0.0214
      8 C         140.6679  141.2563  166.7180 C.ar    1  UNL1       -0.0029
      9 C         140.3240  140.6027  165.4125 C.ar    1  UNL1        0.0180
     10 C         140.3330  141.4671  169.2858 C.3     1  UNL1        0.0347
     11 C         140.2511  140.2183  170.1127 C.3     1  UNL1        0.0726
     12 N         140.5629  140.5822  171.5341 N.3     1  UNL1       -0.2972
     13 C         140.8375  142.0560  171.5856 C.3     1  UNL1        0.0689
     14 C         140.6954  142.6029  170.1961 C.3     1  UNL1        0.0211
     15 C         140.4868  142.8525  168.7318 C.3     1  UNL1        0.0072
     16 H         141.3833  140.0660  171.8516 H       1  UNL1        0.1233
     17 C         138.6134  138.1992  162.7578 C.3     1  UNL1        0.1822
     18 C         141.5324  138.3356  159.3357 C.ar    1  UNL1       -0.0225
     19 C         140.0768  138.6031  159.0911 C.ar    1  UNL1       -0.0045
     20 C         139.1039  138.5576  160.2318 C.ar    1  UNL1       -0.0029
     21 C         139.5864  138.2446  161.6171 C.ar    1  UNL1        0.0017
     22 C         141.0419  137.9771  161.8617 C.ar    1  UNL1       -0.0029
     23 C         142.0149  138.0226  160.7210 C.ar    1  UNL1       -0.0045
     24 C         142.6843  137.1806  157.3135 C.3     1  UNL1        0.0047
     25 C         142.5053  138.3810  158.1949 C.3     1  UNL1        0.0224
     26 C         143.2994  139.6269  157.9356 C.3     1  UNL1        0.0047
@<TRIPOS>BOND
     1    24    25    1
     2    25    26    1
     3    25    18    1
     4    18    19   ar
     5    19    20   ar
     6    20    21   ar
     7    21    17    1
     8    17     1    1
     9     1     2    2
    10     1     3    2
    11     1     4    1
    12     4     5   ar
    13     5     6   ar
    14     6     7   ar
    15    10     7    1
    16    10    11    1
    17    11    12    1
    18    12    13    1
    19    14    13    1
    20    14    15    1
    21     7     8   ar
    22     8     9   ar
    23    21    22   ar
    24    22    23   ar
    25    23    18   ar
    26     9     4   ar
    27    14    10    1
    28    15    10    1
    29    12    16    1
@<TRIPOS>MOLECULE
*****
 26 29 0 0 0
SMALL
GASTEIGER

@<TRIPOS>ATOM
      1 S         138.9825  138.8045  164.0804 S.O2    1  UNL1        0.0129
      2 O         138.8118  140.1498  163.4392 O.2     1  UNL1       -0.1683
      3 O         139.1532  137.4593  164.7215 O.2     1  UNL1       -0.1683
      4 C         139.3182  139.4680  165.3832 C.ar    1  UNL1        0.1060
      5 C         138.6083  139.0569  166.6389 C.ar    1  UNL1        0.0180
      6 C         138.9440  139.7204  167.9418 C.ar    1  UNL1       -0.0029
      7 C         139.9895  140.7949  167.9887 C.ar    1  UNL1       -0.0214
      8 C         140.6995  141.2059  166.7328 C.ar    1  UNL1       -0.0029
      9 C         140.3638  140.5425  165.4301 C.ar    1  UNL1        0.0180
     10 C         140.3252  141.4584  169.2914 C.3     1  UNL1        0.0347
     11 C         140.2642  140.2114  170.1228 C.3     1  UNL1        0.0726
     12 N         140.5725  140.5851  171.5423 N.3     1  UNL1       -0.2972
     13 C         140.8240  142.0631  171.5883 C.3     1  UNL1        0.0689
     14 C         140.6712  142.6029  170.1972 C.3     1  UNL1        0.0211
     15 C         140.4564  142.8441  168.7324 C.3     1  UNL1        0.0072
     16 H         141.4013  140.0829  171.8604 H       1  UNL1        0.1233
     17 C         138.6469  138.1410  162.7777 C.3     1  UNL1        0.1822
     18 C         141.5446  138.3373  159.3404 C.ar    1  UNL1       -0.0225
     19 C         142.0412  138.0387  160.7239 C.ar    1  UNL1       -0.0045
     20 C         141.0753  137.9732  161.8696 C.ar    1  UNL1       -0.0029
     21 C         139.6128  138.2064  161.6319 C.ar    1  UNL1        0.0017
     22 C         139.1161  138.5051  160.2484 C.ar    1  UNL1       -0.0029
     23 C         140.0820  138.5705  159.1026 C.ar    1  UNL1       -0.0045
     24 C         142.7055  137.2080  157.3089 C.3     1  UNL1        0.0047
     25 C         142.5105  138.4027  158.1946 C.3     1  UNL1        0.0224
     26 C         143.2814  139.6629  157.9346 C.3     1  UNL1        0.0047
@<TRIPOS>BOND
     1    24    25    1
     2    25    26    1
     3    25    18    1
     4    18    19   ar
     5    19    20   ar
     6    20    21   ar
     7    21    17    1
     8    17     1    1
     9     1     2    2
    10     1     3    2
    11     1     4    1
    12     4     5   ar
    13     5     6   ar
    14     6     7   ar
    15    10     7    1
    16    10    11    1
    17    11    12    1
    18    12    13    1
    19    14    13    1
    20    14    15    1
    21     7     8   ar
    22     8     9   ar
    23    21    22   ar
    24    22    23   ar
    25    23    18   ar
    26     9     4   ar
    27    14    10    1
    28    15    10    1
    29    12    16    1
@<TRIPOS>MOLECULE
*****
 26 29 0 0 0
SMALL
GASTEIGER

@<TRIPOS>ATOM
      1 S         139.0966  139.0813  164.5504 S.O2    1  UNL1        0.0129
      2 O         137.9713  139.9601  164.0908 O.2     1  UNL1       -0.1683
      3 O         140.2219  138.2026  165.0101 O.2     1  UNL1       -0.1683
      4 C         139.5775  138.9567  163.1350 C.ar    1  UNL1        0.1060
      5 C         138.7566  138.2081  162.1272 C.ar    1  UNL1        0.0180
      6 C         139.2374  138.0834  160.7118 C.ar    1  UNL1       -0.0029
      7 C         140.5392  138.7075  160.3043 C.ar    1  UNL1       -0.0214
      8 C         141.3601  139.4561  161.3122 C.ar    1  UNL1       -0.0029
      9 C         140.8792  139.5807  162.7275 C.ar    1  UNL1        0.0180
     10 C         141.0201  138.5829  158.8890 C.3     1  UNL1        0.0347
     11 C         142.4626  138.3576  159.2327 C.3     1  UNL1        0.0726
     12 N         143.2241  138.1913  157.9511 N.3     1  UNL1       -0.2972
     13 C         142.2521  138.3139  156.8153 C.3     1  UNL1        0.0689
     14 C         140.8899  138.5558  157.3948 C.3     1  UNL1        0.0211
     15 C         139.6780  138.7821  158.2493 C.3     1  UNL1        0.0072
     16 H         143.6684  137.2735  157.9290 H       1  UNL1        0.1233
     17 C         138.6158  139.2059  165.9658 C.3     1  UNL1        0.1822
     18 C         140.5408  142.1780  168.7426 C.ar    1  UNL1       -0.0225
     19 C         140.5476  142.4210  167.2625 C.ar    1  UNL1       -0.0045
     20 C         139.9059  141.4303  166.3369 C.ar    1  UNL1       -0.0029
     21 C         139.2575  140.1966  166.8914 C.ar    1  UNL1        0.0017
     22 C         139.2507  139.9537  168.3716 C.ar    1  UNL1       -0.0029
     23 C         139.8924  140.9444  169.2972 C.ar    1  UNL1       -0.0045
     24 C         140.4196  144.3801  170.1160 C.3     1  UNL1        0.0047
     25 C         141.1825  143.1687  169.6683 C.3     1  UNL1        0.0224
     26 C         142.5871  142.9481  170.1462 C.3     1  UNL1        0.0047
@<TRIPOS>BOND
     1    24    25    1
     2    25    26    1
     3    25    18    1
     4    18    19   ar
     5    19    20   ar
     6    20    21   ar
     7    21    17    1
     8    17     1    1
     9     1     2    2
    10     1     3    2
    11     1     4    1
    12     4     5   ar
    13     5     6   ar
    14     6     7   ar
    15    10     7    1
    16    10    11    1
    17    11    12    1
    18    12    13    1
    19    14    13    1
    20    14    15    1
    21     7     8   ar
    22     8     9   ar
    23    21    22   ar
    24    22    23   ar
    25    23    18   ar
    26     9     4   ar
    27    14    10    1
    28    15    10    1
    29    12    16    1
@<TRIPOS>MOLECULE
*****
 26 29 0 0 0
SMALL
GASTEIGER

@<TRIPOS>ATOM
      1 S         138.1875  141.3956  162.3536 S.O2    1  UNL1        0.0129
      2 O         139.1778  140.3036  162.0765 O.2     1  UNL1       -0.1683
      3 O         137.1973  142.4877  162.6306 O.2     1  UNL1       -0.1683
      4 C         138.7631  142.2031  161.2280 C.ar    1  UNL1        0.1060
      5 C         139.6029  143.4102  161.5239 C.ar    1  UNL1        0.0180
      6 C         140.1784  144.2177  160.3983 C.ar    1  UNL1       -0.0029
      7 C         139.9141  143.8180  158.9769 C.ar    1  UNL1       -0.0214
      8 C         139.0742  142.6109  158.6811 C.ar    1  UNL1       -0.0029
      9 C         138.4987  141.8035  159.8066 C.ar    1  UNL1        0.0180
     10 C         140.4896  144.6255  157.8514 C.3     1  UNL1        0.0347
     11 C         141.6067  145.2313  158.6482 C.3     1  UNL1        0.0726
     12 N         142.3906  146.1301  157.7384 N.3     1  UNL1       -0.2972
     13 C         141.7579  146.0797  156.3794 C.3     1  UNL1        0.0689
     14 C         140.5830  145.1498  156.4491 C.3     1  UNL1        0.0211
     15 C         139.4927  144.1884  156.8193 C.3     1  UNL1        0.0072
     16 H         143.3569  145.8084  157.6825 H       1  UNL1        0.1233
     17 C         137.6120  140.5882  163.4791 C.3     1  UNL1        0.1822
     18 C         139.7546  140.3901  167.4313 C.ar    1  UNL1       -0.0225
     19 C         138.8068  139.2967  167.0364 C.ar    1  UNL1       -0.0045
     20 C         138.0926  139.3627  165.7190 C.ar    1  UNL1       -0.0029
     21 C         138.3262  140.5222  164.7965 C.ar    1  UNL1        0.0017
     22 C         139.2740  141.6156  165.1914 C.ar    1  UNL1       -0.0029
     23 C         139.9883  141.5496  166.5088 C.ar    1  UNL1       -0.0045
     24 C         139.6889  140.3848  170.0285 C.3     1  UNL1        0.0047
     25 C         140.4688  140.3241  168.7487 C.3     1  UNL1        0.0224
     26 C         141.9630  140.1974  168.7862 C.3     1  UNL1        0.0047
@<TRIPOS>BOND
     1    24    25    1
     2    25    26    1
     3    25    18    1
     4    18    19   ar
     5    19    20   ar
     6    20    21   ar
     7    21    17    1
     8    17     1    1
     9     1     2    2
    10     1     3    2
    11     1     4    1
    12     4     5   ar
    13     5     6   ar
    14     6     7   ar
    15    10     7    1
    16    10    11    1
    17    11    12    1
    18    12    13    1
    19    14    13    1
    20    14    15    1
    21     7     8   ar
    22     8     9   ar
    23    21    22   ar
    24    22    23   ar
    25    23    18   ar
    26     9     4   ar
    27    14    10    1
    28    15    10    1
    29    12    16    1
@<TRIPOS>MOLECULE
*****
 26 29 0 0 0
SMALL
GASTEIGER

@<TRIPOS>ATOM
      1 S         144.0604  140.4508  163.8129 S.O2    1  UNL1        0.0129
      2 O         145.1706  139.6010  164.3561 O.2     1  UNL1       -0.1683
      3 O         142.9501  141.3006  163.2697 O.2     1  UNL1       -0.1683
      4 C         143.3992  140.4479  165.1594 C.ar    1  UNL1        0.1060
      5 C         142.8410  141.7206  165.7236 C.ar    1  UNL1        0.0180
      6 C         142.1799  141.7177  167.0702 C.ar    1  UNL1       -0.0029
      7 C         142.0771  140.4420  167.8524 C.ar    1  UNL1       -0.0214
      8 C         142.6354  139.1691  167.2881 C.ar    1  UNL1       -0.0029
      9 C         143.2964  139.1721  165.9417 C.ar    1  UNL1        0.0180
     10 C         141.4160  140.4390  169.1988 C.3     1  UNL1        0.0347
     11 C         142.6677  140.6831  169.9886 C.3     1  UNL1        0.0726
     12 N         142.2972  140.7313  171.4413 N.3     1  UNL1       -0.2972
     13 C         140.8165  140.5170  171.5493 C.3     1  UNL1        0.0689
     14 C         140.2719  140.3363  170.1635 C.3     1  UNL1        0.0211
     15 C         140.0261  140.1943  168.6906 C.3     1  UNL1        0.0072
     16 H         142.5447  141.6405  171.8317 H       1  UNL1        0.1233
     17 C         144.7214  140.4537  162.4665 C.3     1  UNL1        0.1822
     18 C         142.7923  138.3164  159.0081 C.ar    1  UNL1       -0.0225
     19 C         143.0654  137.5806  160.2864 C.ar    1  UNL1       -0.0045
     20 C         143.7084  138.2931  161.4392 C.ar    1  UNL1       -0.0029
     21 C         144.0784  139.7413  161.3137 C.ar    1  UNL1        0.0017
     22 C         143.8053  140.4770  160.0354 C.ar    1  UNL1       -0.0029
     23 C         143.1622  139.7646  158.8826 C.ar    1  UNL1       -0.0045
     24 C         140.7807  138.0081  157.3930 C.3     1  UNL1        0.0047
     25 C         142.1492  137.6039  157.8553 C.3     1  UNL1        0.0224
     26 C         142.8747  136.4873  157.1649 C.3     1  UNL1        0.0047
@<TRIPOS>BOND
     1    24    25    1
     2    25    26    1
     3    25    18    1
     4    18    19   ar
     5    19    20   ar
     6    20    21   ar
     7    21    17    1
     8    17     1    1
     9     1     2    2
    10     1     3    2
    11     1     4    1
    12     4     5   ar
    13     5     6   ar
    14     6     7   ar
    15    10     7    1
    16    10    11    1
    17    11    12    1
    18    12    13    1
    19    14    13    1
    20    14    15    1
    21     7     8   ar
    22     8     9   ar
    23    21    22   ar
    24    22    23   ar
    25    23    18   ar
    26     9     4   ar
    27    14    10    1
    28    15    10    1
    29    12    16    1
@<TRIPOS>MOLECULE
*****
 26 29 0 0 0
SMALL
GASTEIGER

@<TRIPOS>ATOM
      1 S         139.7765  138.2412  164.1892 S.O2    1  UNL1        0.0129
      2 O         141.0098  138.7830  163.5294 O.2     1  UNL1       -0.1683
      3 O         138.5431  137.6995  164.8489 O.2     1  UNL1       -0.1683
      4 C         140.1760  138.8993  165.4766 C.ar    1  UNL1        0.1060
      5 C         141.6266  139.1232  165.7858 C.ar    1  UNL1        0.0180
      6 C         142.0261  139.7813  167.0733 C.ar    1  UNL1       -0.0029
      7 C         140.9750  140.2155  168.0514 C.ar    1  UNL1       -0.0214
      8 C         139.5244  139.9915  167.7421 C.ar    1  UNL1       -0.0029
      9 C         139.1249  139.3335  166.4547 C.ar    1  UNL1        0.0180
     10 C         141.3745  140.8735  169.3387 C.3     1  UNL1        0.0347
     11 C         140.4382  140.0916  170.2116 C.3     1  UNL1        0.0726
     12 N         140.6245  140.5575  171.6252 N.3     1  UNL1       -0.2972
     13 C         141.6759  141.6273  171.6259 C.3     1  UNL1        0.0689
     14 C         142.1395  141.8226  170.2128 C.3     1  UNL1        0.0211
     15 C         142.3943  141.7930  168.7350 C.3     1  UNL1        0.0072
     16 H         140.9241  139.7774  172.2102 H       1  UNL1        0.1233
     17 C         139.3769  137.5832  162.9019 C.3     1  UNL1        0.1822
     18 C         138.5502  140.0882  159.2562 C.ar    1  UNL1       -0.0225
     19 C         137.6663  140.2048  160.4624 C.ar    1  UNL1       -0.0045
     20 C         137.9419  139.3698  161.6777 C.ar    1  UNL1       -0.0029
     21 C         139.1013  138.4182  161.6866 C.ar    1  UNL1        0.0017
     22 C         139.9852  138.3016  160.4804 C.ar    1  UNL1       -0.0029
     23 C         139.7096  139.1366  159.2651 C.ar    1  UNL1       -0.0045
     24 C         138.1543  142.4131  158.1662 C.3     1  UNL1        0.0047
     25 C         138.2746  140.9232  158.0409 C.3     1  UNL1        0.0224
     26 C         138.1193  140.2684  156.7004 C.3     1  UNL1        0.0047
@<TRIPOS>BOND
     1    24    25    1
     2    25    26    1
     3    25    18    1
     4    18    19   ar
     5    19    20   ar
     6    20    21   ar
     7    21    17    1
     8    17     1    1
     9     1     2    2
    10     1     3    2
    11     1     4    1
    12     4     5   ar
    13     5     6   ar
    14     6     7   ar
    15    10     7    1
    16    10    11    1
    17    11    12    1
    18    12    13    1
    19    14    13    1
    20    14    15    1
    21     7     8   ar
    22     8     9   ar
    23    21    22   ar
    24    22    23   ar
    25    23    18   ar
    26     9     4   ar
    27    14    10    1
    28    15    10    1
    29    12    16    1
@<TRIPOS>MOLECULE
*****
 26 29 0 0 0
SMALL
GASTEIGER

@<TRIPOS>ATOM
      1 S         143.7308  139.3244  164.0608 S.O2    1  UNL1        0.0129
      2 O         142.2935  139.3094  163.6318 O.2     1  UNL1       -0.1683
      3 O         145.1680  139.3395  164.4898 O.2     1  UNL1       -0.1683
      4 C         143.3200  139.8077  165.4202 C.ar    1  UNL1        0.1060
      5 C         143.1473  141.2760  165.6736 C.ar    1  UNL1        0.0180
      6 C         142.7365  141.7592  167.0330 C.ar    1  UNL1       -0.0029
      7 C         142.4985  140.7741  168.1389 C.ar    1  UNL1       -0.0214
      8 C         142.6713  139.3058  167.8854 C.ar    1  UNL1       -0.0029
      9 C         143.0820  138.8226  166.5261 C.ar    1  UNL1        0.0180
     10 C         142.0878  141.2573  169.4982 C.3     1  UNL1        0.0347
     11 C         141.1538  140.1211  169.7929 C.3     1  UNL1        0.0726
     12 N         140.5658  140.3456  171.1544 N.3     1  UNL1       -0.2972
     13 C         141.1363  141.6206  171.7012 C.3     1  UNL1        0.0689
     14 C         142.0769  142.1840  170.6776 C.3     1  UNL1        0.0211
     15 C         142.9358  142.4945  169.4877 C.3     1  UNL1        0.0072
     16 H         140.8067  139.5674  171.7682 H       1  UNL1        0.1233
     17 C         144.1415  138.8412  162.7015 C.3     1  UNL1        0.1822
     18 C         144.0448  141.6533  159.1897 C.ar    1  UNL1       -0.0225
     19 C         143.7101  140.2036  158.9991 C.ar    1  UNL1       -0.0045
     20 C         143.7424  139.2662  160.1697 C.ar    1  UNL1       -0.0029
     21 C         144.1093  139.7786  161.5309 C.ar    1  UNL1        0.0017
     22 C         144.4439  141.2283  161.7215 C.ar    1  UNL1       -0.0029
     23 C         144.4117  142.1656  160.5509 C.ar    1  UNL1       -0.0045
     24 C         144.9974  142.4268  156.8997 C.3     1  UNL1        0.0047
     25 C         144.0125  142.5906  158.0191 C.3     1  UNL1        0.0224
     26 C         142.9953  143.6918  157.9678 C.3     1  UNL1        0.0047
@<TRIPOS>BOND
     1    24    25    1
     2    25    26    1
     3    25    18    1
     4    18    19   ar
     5    19    20   ar
     6    20    21   ar
     7    21    17    1
     8    17     1    1
     9     1     2    2
    10     1     3    2
    11     1     4    1
    12     4     5   ar
    13     5     6   ar
    14     6     7   ar
    15    10     7    1
    16    10    11    1
    17    11    12    1
    18    12    13    1
    19    14    13    1
    20    14    15    1
    21     7     8   ar
    22     8     9   ar
    23    21    22   ar
    24    22    23   ar
    25    23    18   ar
    26     9     4   ar
    27    14    10    1
    28    15    10    1
    29    12    16    1
@<TRIPOS>MOLECULE
*****
 26 29 0 0 0
SMALL
GASTEIGER

@<TRIPOS>ATOM
      1 S         138.5038  142.1017  163.9546 S.O2    1  UNL1        0.0129
      2 O         137.7053  143.1976  164.5959 O.2     1  UNL1       -0.1683
      3 O         139.3023  141.0058  163.3133 O.2     1  UNL1       -0.1683
      4 C         139.1764  141.8241  165.2664 C.ar    1  UNL1        0.1060
      5 C         139.9288  142.9149  165.9691 C.ar    1  UNL1        0.0180
      6 C         140.6014  142.6372  167.2809 C.ar    1  UNL1       -0.0029
      7 C         140.5214  141.2687  167.8898 C.ar    1  UNL1       -0.0214
      8 C         139.7689  140.1779  167.1870 C.ar    1  UNL1       -0.0029
      9 C         139.0964  140.4556  165.8753 C.ar    1  UNL1        0.0180
     10 C         141.1939  140.9910  169.2015 C.3     1  UNL1        0.0347
     11 C         140.1465  141.6417  170.0556 C.3     1  UNL1        0.0726
     12 N         140.5706  141.5122  171.4885 N.3     1  UNL1       -0.2972
     13 C         141.8802  140.7814  171.5200 C.3     1  UNL1        0.0689
     14 C         142.2655  140.4594  170.1066 C.3     1  UNL1        0.0211
     15 C         142.3820  140.2823  168.6217 C.3     1  UNL1        0.0072
     16 H         139.8690  140.9878  172.0112 H       1  UNL1        0.1233
     17 C         137.8313  142.3793  162.6429 C.3     1  UNL1        0.1822
     18 C         140.1130  144.3890  159.3255 C.ar    1  UNL1       -0.0225
     19 C         139.2709  143.1828  159.0329 C.ar    1  UNL1       -0.0045
     20 C         138.5103  142.5129  160.1387 C.ar    1  UNL1       -0.0029
     21 C         138.5919  143.0492  161.5371 C.ar    1  UNL1        0.0017
     22 C         139.4340  144.2555  161.8297 C.ar    1  UNL1       -0.0029
     23 C         140.1945  144.9254  160.7239 C.ar    1  UNL1       -0.0045
     24 C         142.2944  144.6667  157.9420 C.3     1  UNL1        0.0047
     25 C         140.8735  145.0590  158.2197 C.3     1  UNL1        0.0224
     26 C         140.2132  146.1211  157.3916 C.3     1  UNL1        0.0047
@<TRIPOS>BOND
     1    24    25    1
     2    25    26    1
     3    25    18    1
     4    18    19   ar
     5    19    20   ar
     6    20    21   ar
     7    21    17    1
     8    17     1    1
     9     1     2    2
    10     1     3    2
    11     1     4    1
    12     4     5   ar
    13     5     6   ar
    14     6     7   ar
    15    10     7    1
    16    10    11    1
    17    11    12    1
    18    12    13    1
    19    14    13    1
    20    14    15    1
    21     7     8   ar
    22     8     9   ar
    23    21    22   ar
    24    22    23   ar
    25    23    18   ar
    26     9     4   ar
    27    14    10    1
    28    15    10    1
    29    12    16    1
@<TRIPOS>MOLECULE
*****
 26 29 0 0 0
SMALL
GASTEIGER

@<TRIPOS>ATOM
      1 S         141.7333  138.4494  164.0223 S.O2    1  UNL1        0.0129
      2 O         142.4011  139.6772  163.4778 O.2     1  UNL1       -0.1683
      3 O         141.0656  137.2217  164.5668 O.2     1  UNL1       -0.1683
      4 C         141.3429  139.2087  165.2557 C.ar    1  UNL1        0.1060
      5 C         139.8937  139.4297  165.5730 C.ar    1  UNL1        0.0180
      6 C         139.5032  140.1890  166.8064 C.ar    1  UNL1       -0.0029
      7 C         140.5621  140.7272  167.7224 C.ar    1  UNL1       -0.0214
      8 C         142.0115  140.5062  167.4050 C.ar    1  UNL1       -0.0029
      9 C         142.4018  139.7470  166.1717 C.ar    1  UNL1        0.0180
     10 C         140.1718  141.4865  168.9557 C.3     1  UNL1        0.0347
     11 C         140.5503  142.8404  168.4328 C.3     1  UNL1        0.0726
     12 N         140.2561  143.8495  169.5029 N.3     1  UNL1       -0.2972
     13 C         139.6958  143.1192  170.6872 C.3     1  UNL1        0.0689
     14 C         139.6436  141.6588  170.3491 C.3     1  UNL1        0.0211
     15 C         139.7116  140.2913  169.7366 C.3     1  UNL1        0.0072
     16 H         139.5757  144.5282  169.1610 H       1  UNL1        0.1233
     17 C         142.1237  137.6902  162.7890 C.3     1  UNL1        0.1822
     18 C         140.2241  138.6917  158.8345 C.ar    1  UNL1       -0.0225
     19 C         141.7096  138.5061  158.9274 C.ar    1  UNL1       -0.0045
     20 C         142.3428  138.1723  160.2455 C.ar    1  UNL1       -0.0029
     21 C         141.4905  138.0240  161.4709 C.ar    1  UNL1        0.0017
     22 C         140.0050  138.2096  161.3780 C.ar    1  UNL1       -0.0029
     23 C         139.3717  138.5435  160.0599 C.ar    1  UNL1       -0.0045
     24 C         138.7498  140.2600  157.3796 C.3     1  UNL1        0.0047
     25 C         139.5908  139.0256  157.5164 C.3     1  UNL1        0.0224
     26 C         139.7986  138.1250  156.3350 C.3     1  UNL1        0.0047
@<TRIPOS>BOND
     1    24    25    1
     2    25    26    1
     3    25    18    1
     4    18    19   ar
     5    19    20   ar
     6    20    21   ar
     7    21    17    1
     8    17     1    1
     9     1     2    2
    10     1     3    2
    11     1     4    1
    12     4     5   ar
    13     5     6   ar
    14     6     7   ar
    15    10     7    1
    16    10    11    1
    17    11    12    1
    18    12    13    1
    19    14    13    1
    20    14    15    1
    21     7     8   ar
    22     8     9   ar
    23    21    22   ar
    24    22    23   ar
    25    23    18   ar
    26     9     4   ar
    27    14    10    1
    28    15    10    1
    29    12    16    1
