@<TRIPOS>MOLECULE
*****
 32 36 0 0 0
SMALL
GASTEIGER

@<TRIPOS>ATOM
      1 C         142.8375  136.9926  157.6292 C.ar    1  UNL1        0.1646
      2 N         143.2423  136.8939  159.0702 N.ar    1  UNL1       -0.2224
      3 C         142.4460  137.9015  159.8453 C.ar    1  UNL1        0.1074
      4 C         141.5492  138.6228  158.8834 C.ar    1  UNL1        0.0588
      5 S         141.7912  138.0611  157.5137 S.2     1  UNL1       -0.0508
      6 C         142.5316  138.1450  161.3229 C.ar    1  UNL1        0.1026
      7 C         141.4265  137.6808  162.2248 C.ar    1  UNL1        0.0224
      8 C         141.5121  137.9243  163.7024 C.ar    1  UNL1        0.0239
      9 C         142.7028  138.6320  164.2782 C.ar    1  UNL1        0.1189
     10 C         143.8078  139.0962  163.3763 C.ar    1  UNL1        0.2416
     11 N         143.7223  138.8527  161.8987 N.ar    1  UNL1       -0.2089
     12 N         142.7884  138.8755  165.7558 N.ar    1  UNL1       -0.2826
     13 C         143.5344  138.0320  166.7467 C.ar    1  UNL1        0.1826
     14 N         143.3500  138.6404  168.1052 N.ar    1  UNL1       -0.2280
     15 C         142.4901  139.8601  167.9540 C.ar    1  UNL1        0.0786
     16 C         142.0538  140.7740  169.0607 C.3     1  UNL1        0.0538
     17 C         142.1429  140.0054  166.5020 C.ar    1  UNL1        0.0963
     18 O         144.9985  139.8039  163.9521 O.3     1  UNL1       -0.4551
     19 C         145.3538  141.1818  163.4777 C.3     1  UNL1        0.2543
     20 N         143.3834  136.1675  156.5016 N.pl3   1  UNL1       -0.2786
     21 H         144.1196  136.5156  155.9484 H       1  UNL1        0.1555
     22 N         141.5942  134.5273  155.3818 N.ar    1  UNL1       -0.2383
     23 N         141.3806  133.0427  155.3661 N.ar    1  UNL1       -0.1729
     24 C         142.4616  132.4099  156.1913 C.ar    1  UNL1        0.0773
     25 C         143.3434  133.5035  156.7171 C.ar    1  UNL1        0.0244
     26 C         142.8074  134.8121  156.2168 C.ar    1  UNL1        0.1275
     27 C         144.5206  133.1664  157.5835 C.3     1  UNL1        0.0305
     28 C         144.8159  131.7358  157.9240 C.3     1  UNL1        0.0052
     29 C         143.9340  130.6422  157.3982 C.3     1  UNL1        0.0067
     30 C         142.7569  130.9793  156.5318 C.3     1  UNL1        0.0474
     31 C         140.5928  135.5057  153.1933 C.3     1  UNL1        0.0285
     32 C         140.7441  135.5479  154.6850 C.3     1  UNL1        0.1289
@<TRIPOS>BOND
     1    31    32    1
     2    32    22    1
     3    22    23   ar
     4    23    24   ar
     5    24    25   ar
     6    25    26   ar
     7    26    20    1
     8    20     1    1
     9     1     2   ar
    10     2     3   ar
    11     3     6    1
    12     6     7   ar
    13     7     8   ar
    14     8     9   ar
    15     9    12    1
    16    12    13   ar
    17    13    14   ar
    18    14    15   ar
    19    15    16    1
    20    15    17   ar
    21     9    10   ar
    22    10    18    1
    23    18    19    1
    24    10    11   ar
    25     3     4   ar
    26     4     5   ar
    27    25    27    1
    28    27    28    1
    29    28    29    1
    30    29    30    1
    31    26    22   ar
    32     5     1   ar
    33    30    24    1
    34    11     6   ar
    35    17    12   ar
    36    20    21    1
@<TRIPOS>MOLECULE
*****
 32 36 0 0 0
SMALL
GASTEIGER

@<TRIPOS>ATOM
      1 C         137.5049  140.8065  157.5632 C.ar    1  UNL1        0.1646
      2 N         137.4494  140.1180  158.8946 N.ar    1  UNL1       -0.2224
      3 C         138.0373  141.0424  159.9193 C.ar    1  UNL1        0.1074
      4 C         138.4560  142.3022  159.2211 C.ar    1  UNL1        0.0588
      5 S         138.1270  142.1564  157.7649 S.2     1  UNL1       -0.0508
      6 C         138.1811  140.7571  161.3849 C.ar    1  UNL1        0.1026
      7 C         137.8568  141.8209  162.3915 C.ar    1  UNL1        0.0224
      8 C         138.0006  141.5356  163.8570 C.ar    1  UNL1        0.0239
      9 C         138.4688  140.1864  164.3160 C.ar    1  UNL1        0.1189
     10 C         138.7932  139.1227  163.3094 C.ar    1  UNL1        0.2416
     11 N         138.6493  139.4080  161.8438 N.ar    1  UNL1       -0.2089
     12 N         138.6127  139.9011  165.7816 N.ar    1  UNL1       -0.2826
     13 C         137.8124  138.9063  166.5688 C.ar    1  UNL1        0.1826
     14 N         138.2871  138.9508  167.9910 N.ar    1  UNL1       -0.2280
     15 C         139.3809  139.9733  168.0827 C.ar    1  UNL1        0.0786
     16 C         140.1401  140.3434  169.3223 C.3     1  UNL1        0.0538
     17 C         139.5821  140.5605  166.7172 C.ar    1  UNL1        0.0963
     18 O         139.2614  137.7736  163.7685 O.3     1  UNL1       -0.4551
     19 C         140.7294  137.4762  163.8480 C.3     1  UNL1        0.2543
     20 N         137.0228  140.2439  156.2588 N.pl3   1  UNL1       -0.2786
     21 H         137.5536  139.5586  155.7921 H       1  UNL1        0.1555
     22 N         135.5900  141.6010  154.4559 N.ar    1  UNL1       -0.2383
     23 N         134.1268  141.8327  154.2206 N.ar    1  UNL1       -0.1729
     24 C         133.3645  141.1004  155.2849 C.ar    1  UNL1        0.0773
     25 C         134.3566  140.4161  156.1780 C.ar    1  UNL1        0.0244
     26 C         135.7320  140.7255  155.6656 C.ar    1  UNL1        0.1275
     27 C         133.8793  139.5998  157.3423 C.3     1  UNL1        0.0305
     28 C         132.4100  139.4677  157.6136 C.3     1  UNL1        0.0052
     29 C         131.4179  140.1520  156.7206 C.3     1  UNL1        0.0067
     30 C         131.8952  140.9684  155.5562 C.3     1  UNL1        0.0474
     31 C         136.7977  143.6216  153.3565 C.3     1  UNL1        0.0285
     32 C         136.7139  142.1486  153.6270 C.3     1  UNL1        0.1289
@<TRIPOS>BOND
     1    31    32    1
     2    32    22    1
     3    22    23   ar
     4    23    24   ar
     5    24    25   ar
     6    25    26   ar
     7    26    20    1
     8    20     1    1
     9     1     2   ar
    10     2     3   ar
    11     3     6    1
    12     6     7   ar
    13     7     8   ar
    14     8     9   ar
    15     9    12    1
    16    12    13   ar
    17    13    14   ar
    18    14    15   ar
    19    15    16    1
    20    15    17   ar
    21     9    10   ar
    22    10    18    1
    23    18    19    1
    24    10    11   ar
    25     3     4   ar
    26     4     5   ar
    27    25    27    1
    28    27    28    1
    29    28    29    1
    30    29    30    1
    31    26    22   ar
    32     5     1   ar
    33    30    24    1
    34    11     6   ar
    35    17    12   ar
    36    20    21    1
@<TRIPOS>MOLECULE
*****
 32 36 0 0 0
SMALL
GASTEIGER

@<TRIPOS>ATOM
      1 C         142.9711  136.7792  157.2474 C.ar    1  UNL1        0.1646
      2 N         143.2741  136.6505  158.7108 N.ar    1  UNL1       -0.2224
      3 C         142.5664  137.7604  159.4301 C.ar    1  UNL1        0.1074
      4 C         141.8261  138.5750  158.4112 C.ar    1  UNL1        0.0588
      5 S         142.0762  137.9687  157.0622 S.2     1  UNL1       -0.0508
      6 C         142.5942  138.0114  160.9086 C.ar    1  UNL1        0.1026
      7 C         143.8082  138.6228  161.5429 C.ar    1  UNL1        0.0224
      8 C         143.8359  138.8739  163.0215 C.ar    1  UNL1        0.0239
      9 C         142.6496  138.5135  163.8658 C.ar    1  UNL1        0.1189
     10 C         141.4356  137.9021  163.2315 C.ar    1  UNL1        0.2416
     11 N         141.4078  137.6510  161.7529 N.ar    1  UNL1       -0.2089
     12 N         142.6774  138.7646  165.3444 N.ar    1  UNL1       -0.2826
     13 C         143.6543  138.1785  166.3200 C.ar    1  UNL1        0.1826
     14 N         143.3138  138.6975  167.6855 N.ar    1  UNL1       -0.2280
     15 C         142.1263  139.6044  167.5538 C.ar    1  UNL1        0.0786
     16 C         141.4508  140.3406  168.6727 C.3     1  UNL1        0.0538
     17 C         141.7330  139.6459  166.1069 C.ar    1  UNL1        0.0963
     18 O         140.2493  137.5417  164.0759 O.3     1  UNL1       -0.4551
     19 C         138.8741  137.5440  163.4770 C.3     1  UNL1        0.2543
     20 N         143.4747  135.8769  156.1599 N.pl3   1  UNL1       -0.2786
     21 H         144.1759  136.1915  155.5446 H       1  UNL1        0.1555
     22 N         141.6896  134.1226  155.2214 N.ar    1  UNL1       -0.2383
     23 N         141.4918  132.6410  155.3465 N.ar    1  UNL1       -0.1729
     24 C         142.5897  132.0982  156.2126 C.ar    1  UNL1        0.0773
     25 C         143.4661  133.2443  156.6227 C.ar    1  UNL1        0.0244
     26 C         142.9099  134.4954  156.0101 C.ar    1  UNL1        0.1275
     27 C         144.6574  133.0006  157.5009 C.3     1  UNL1        0.0305
     28 C         144.9723  131.6108  157.9690 C.3     1  UNL1        0.0052
     29 C         144.0959  130.4646  157.5589 C.3     1  UNL1        0.0067
     30 C         142.9045  130.7083  156.6807 C.3     1  UNL1        0.0474
     31 C         140.9838  135.1846  152.9578 C.3     1  UNL1        0.0285
     32 C         140.8200  135.0657  154.4441 C.3     1  UNL1        0.1289
@<TRIPOS>BOND
     1    31    32    1
     2    32    22    1
     3    22    23   ar
     4    23    24   ar
     5    24    25   ar
     6    25    26   ar
     7    26    20    1
     8    20     1    1
     9     1     2   ar
    10     2     3   ar
    11     3     6    1
    12     6     7   ar
    13     7     8   ar
    14     8     9   ar
    15     9    12    1
    16    12    13   ar
    17    13    14   ar
    18    14    15   ar
    19    15    16    1
    20    15    17   ar
    21     9    10   ar
    22    10    18    1
    23    18    19    1
    24    10    11   ar
    25     3     4   ar
    26     4     5   ar
    27    25    27    1
    28    27    28    1
    29    28    29    1
    30    29    30    1
    31    26    22   ar
    32     5     1   ar
    33    30    24    1
    34    11     6   ar
    35    17    12   ar
    36    20    21    1
@<TRIPOS>MOLECULE
*****
 32 36 0 0 0
SMALL
GASTEIGER

@<TRIPOS>ATOM
      1 C         143.7752  141.0802  164.3537 C.ar    1  UNL1        0.1646
      2 N         142.6792  141.5606  163.4493 N.ar    1  UNL1       -0.2224
      3 C         143.3138  142.2459  162.2755 C.ar    1  UNL1        0.1074
      4 C         144.8020  142.1890  162.4545 C.ar    1  UNL1        0.0588
      5 S         145.0872  141.4686  163.7389 S.2     1  UNL1       -0.0508
      6 C         142.5877  142.8772  161.1248 C.ar    1  UNL1        0.1026
      7 C         142.9810  142.5441  159.7162 C.ar    1  UNL1        0.0224
      8 C         142.2549  143.1755  158.5654 C.ar    1  UNL1        0.0239
      9 C         141.1354  144.1400  158.8234 C.ar    1  UNL1        0.1189
     10 C         140.7421  144.4731  160.2321 C.ar    1  UNL1        0.2416
     11 N         141.4682  143.8418  161.3828 N.ar    1  UNL1       -0.2089
     12 N         140.4093  144.7713  157.6727 N.ar    1  UNL1       -0.2826
     13 C         139.3805  144.1058  156.8075 C.ar    1  UNL1        0.1826
     14 N         138.9198  145.1022  155.7852 N.ar    1  UNL1       -0.2280
     15 C         139.6640  146.3835  156.0186 C.ar    1  UNL1        0.0786
     16 C         139.5139  147.6474  155.2248 C.3     1  UNL1        0.0538
     17 C         140.5845  146.1790  157.1851 C.ar    1  UNL1        0.0963
     18 O         139.6226  145.4376  160.4900 O.3     1  UNL1       -0.4551
     19 C         139.6492  146.3083  161.7111 C.3     1  UNL1        0.2543
     20 N         143.5915  140.3412  165.6461 N.pl3   1  UNL1       -0.2786
     21 H         144.3338  139.8149  166.0220 H       1  UNL1        0.1555
     22 N         141.9445  141.3058  167.5173 N.ar    1  UNL1       -0.2383
     23 N         140.5260  141.0353  167.9234 N.ar    1  UNL1       -0.1729
     24 C         139.9819  139.9663  167.0227 C.ar    1  UNL1        0.0773
     25 C         141.0640  139.5761  166.0600 C.ar    1  UNL1        0.0244
     26 C         142.2769  140.4040  166.3657 C.ar    1  UNL1        0.1275
     27 C         140.8052  138.5175  165.0295 C.3     1  UNL1        0.0305
     28 C         139.4641  137.8489  164.9616 C.3     1  UNL1        0.0052
     29 C         138.3820  138.2390  165.9243 C.3     1  UNL1        0.0067
     30 C         138.6409  139.2977  166.9549 C.3     1  UNL1        0.0474
     31 C         143.4681  142.0199  169.4968 C.3     1  UNL1        0.0285
     32 C         142.8682  142.3031  168.1515 C.3     1  UNL1        0.1289
@<TRIPOS>BOND
     1    31    32    1
     2    32    22    1
     3    22    23   ar
     4    23    24   ar
     5    24    25   ar
     6    25    26   ar
     7    26    20    1
     8    20     1    1
     9     1     2   ar
    10     2     3   ar
    11     3     6    1
    12     6     7   ar
    13     7     8   ar
    14     8     9   ar
    15     9    12    1
    16    12    13   ar
    17    13    14   ar
    18    14    15   ar
    19    15    16    1
    20    15    17   ar
    21     9    10   ar
    22    10    18    1
    23    18    19    1
    24    10    11   ar
    25     3     4   ar
    26     4     5   ar
    27    25    27    1
    28    27    28    1
    29    28    29    1
    30    29    30    1
    31    26    22   ar
    32     5     1   ar
    33    30    24    1
    34    11     6   ar
    35    17    12   ar
    36    20    21    1
@<TRIPOS>MOLECULE
*****
 32 36 0 0 0
SMALL
GASTEIGER

@<TRIPOS>ATOM
      1 C         142.2119  137.9549  158.1192 C.ar    1  UNL1        0.1646
      2 N         142.2579  138.0025  159.6177 N.ar    1  UNL1       -0.2224
      3 C         140.9117  138.4459  160.1089 C.ar    1  UNL1        0.1074
      4 C         140.0338  138.6723  158.9139 C.ar    1  UNL1        0.0588
      5 S         140.8374  138.3690  157.6842 S.2     1  UNL1       -0.0508
      6 C         140.5133  138.6304  161.5432 C.ar    1  UNL1        0.1026
      7 C         140.8600  137.5823  162.5587 C.ar    1  UNL1        0.0224
      8 C         140.4617  137.7668  163.9930 C.ar    1  UNL1        0.0239
      9 C         139.7166  138.9995  164.4118 C.ar    1  UNL1        0.1189
     10 C         139.3699  140.0476  163.3963 C.ar    1  UNL1        0.2416
     11 N         139.7683  139.8631  161.9620 N.ar    1  UNL1       -0.2089
     12 N         139.3183  139.1840  165.8461 N.ar    1  UNL1       -0.2826
     13 C         138.0689  138.6587  166.4888 C.ar    1  UNL1        0.1826
     14 N         138.0778  139.0763  167.9294 N.ar    1  UNL1       -0.2280
     15 C         139.3328  139.8596  168.1772 C.ar    1  UNL1        0.0786
     16 C         139.7482  140.4694  169.4833 C.3     1  UNL1        0.0538
     17 C         140.0994  139.9262  166.8896 C.ar    1  UNL1        0.0963
     18 O         138.6249  141.2803  163.8152 O.3     1  UNL1       -0.4551
     19 C         137.2935  141.5969  163.2012 C.3     1  UNL1        0.2543
     20 N         143.3422  137.5623  157.2144 N.pl3   1  UNL1       -0.2786
     21 H         144.2376  137.9485  157.3493 H       1  UNL1        0.1555
     22 N         142.7391  136.9211  154.6905 N.ar    1  UNL1       -0.2383
     23 N         142.6047  135.6380  153.9253 N.ar    1  UNL1       -0.1729
     24 C         142.8905  134.5051  154.8660 C.ar    1  UNL1        0.0773
     25 C         143.2015  135.0881  156.2126 C.ar    1  UNL1        0.0244
     26 C         143.1080  136.5813  156.1041 C.ar    1  UNL1        0.1275
     27 C         143.5298  134.1840  157.3636 C.3     1  UNL1        0.0305
     28 C         143.5470  132.6970  157.1680 C.3     1  UNL1        0.0052
     29 C         143.2359  132.1140  155.8214 C.3     1  UNL1        0.0067
     30 C         142.9077  133.0181  154.6704 C.3     1  UNL1        0.0474
     31 C         143.7239  139.1875  153.8882 C.3     1  UNL1        0.0285
     32 C         142.5396  138.3017  154.1389 C.3     1  UNL1        0.1289
@<TRIPOS>BOND
     1    31    32    1
     2    32    22    1
     3    22    23   ar
     4    23    24   ar
     5    24    25   ar
     6    25    26   ar
     7    26    20    1
     8    20     1    1
     9     1     2   ar
    10     2     3   ar
    11     3     6    1
    12     6     7   ar
    13     7     8   ar
    14     8     9   ar
    15     9    12    1
    16    12    13   ar
    17    13    14   ar
    18    14    15   ar
    19    15    16    1
    20    15    17   ar
    21     9    10   ar
    22    10    18    1
    23    18    19    1
    24    10    11   ar
    25     3     4   ar
    26     4     5   ar
    27    25    27    1
    28    27    28    1
    29    28    29    1
    30    29    30    1
    31    26    22   ar
    32     5     1   ar
    33    30    24    1
    34    11     6   ar
    35    17    12   ar
    36    20    21    1
@<TRIPOS>MOLECULE
*****
 32 36 0 0 0
SMALL
GASTEIGER

@<TRIPOS>ATOM
      1 C         143.5218  140.3244  164.7112 C.ar    1  UNL1        0.1646
      2 N         142.5789  141.1103  163.8490 N.ar    1  UNL1       -0.2224
      3 C         143.3136  141.5103  162.6039 C.ar    1  UNL1        0.1074
      4 C         144.7104  140.9716  162.6966 C.ar    1  UNL1        0.0588
      5 S         144.8391  140.2387  163.9990 S.2     1  UNL1       -0.0508
      6 C         142.7502  142.3088  161.4659 C.ar    1  UNL1        0.1026
      7 C         143.4021  142.2540  160.1161 C.ar    1  UNL1        0.0224
      8 C         142.8388  143.0525  158.9781 C.ar    1  UNL1        0.0239
      9 C         141.6234  143.9058  159.1900 C.ar    1  UNL1        0.1189
     10 C         140.9715  143.9606  160.5398 C.ar    1  UNL1        0.2416
     11 N         141.5349  143.1621  161.6778 N.ar    1  UNL1       -0.2089
     12 N         141.0601  144.7043  158.0520 N.ar    1  UNL1       -0.2826
     13 C         141.6611  145.9463  157.4637 C.ar    1  UNL1        0.1826
     14 N         140.7693  146.4105  156.3506 N.ar    1  UNL1       -0.2280
     15 C         139.6170  145.4554  156.2509 C.ar    1  UNL1        0.0786
     16 C         138.4839  145.5400  155.2715 C.3     1  UNL1        0.0538
     17 C         139.7967  144.4009  157.3024 C.ar    1  UNL1        0.0963
     18 O         139.7562  144.8139  160.7515 O.3     1  UNL1       -0.4551
     19 C         139.8248  146.0041  161.6618 C.3     1  UNL1        0.2543
     20 N         143.2032  139.7287  166.0506 N.pl3   1  UNL1       -0.2786
     21 H         143.8093  139.0638  166.4504 H       1  UNL1        0.1555
     22 N         140.5703  139.6563  166.5061 N.ar    1  UNL1       -0.2383
     23 N         139.6416  140.3341  167.4695 N.ar    1  UNL1       -0.1729
     24 C         140.4585  141.2427  168.3396 C.ar    1  UNL1        0.0773
     25 C         141.8921  141.1265  167.9140 C.ar    1  UNL1        0.0244
     26 C         141.9612  140.1461  166.7808 C.ar    1  UNL1        0.1275
     27 C         142.9494  141.9285  168.6132 C.3     1  UNL1        0.0305
     28 C         142.5731  142.8466  169.7380 C.3     1  UNL1        0.0052
     29 C         141.1394  142.9628  170.1636 C.3     1  UNL1        0.0067
     30 C         140.0821  142.1609  169.4644 C.3     1  UNL1        0.0474
     31 C         138.7717  138.1417  165.4011 C.3     1  UNL1        0.0285
     32 C         140.1772  138.6632  165.4530 C.3     1  UNL1        0.1289
@<TRIPOS>BOND
     1    31    32    1
     2    32    22    1
     3    22    23   ar
     4    23    24   ar
     5    24    25   ar
     6    25    26   ar
     7    26    20    1
     8    20     1    1
     9     1     2   ar
    10     2     3   ar
    11     3     6    1
    12     6     7   ar
    13     7     8   ar
    14     8     9   ar
    15     9    12    1
    16    12    13   ar
    17    13    14   ar
    18    14    15   ar
    19    15    16    1
    20    15    17   ar
    21     9    10   ar
    22    10    18    1
    23    18    19    1
    24    10    11   ar
    25     3     4   ar
    26     4     5   ar
    27    25    27    1
    28    27    28    1
    29    28    29    1
    30    29    30    1
    31    26    22   ar
    32     5     1   ar
    33    30    24    1
    34    11     6   ar
    35    17    12   ar
    36    20    21    1
@<TRIPOS>MOLECULE
*****
 32 36 0 0 0
SMALL
GASTEIGER

@<TRIPOS>ATOM
      1 C         140.5193  141.7021  164.7338 C.ar    1  UNL1        0.1646
      2 N         140.9737  141.9873  163.3330 N.ar    1  UNL1       -0.2224
      3 C         140.0900  143.0599  162.7684 C.ar    1  UNL1        0.1074
      4 C         139.0895  143.4375  163.8203 C.ar    1  UNL1        0.0588
      5 S         139.3548  142.5984  165.0349 S.2     1  UNL1       -0.0508
      6 C         140.1893  143.6510  161.3934 C.ar    1  UNL1        0.1026
      7 C         141.0424  144.8620  161.1574 C.ar    1  UNL1        0.0224
      8 C         141.1418  145.4531  159.7824 C.ar    1  UNL1        0.0239
      9 C         140.3880  144.8331  158.6433 C.ar    1  UNL1        0.1189
     10 C         139.5349  143.6221  158.8793 C.ar    1  UNL1        0.2416
     11 N         139.4356  143.0310  160.2543 N.ar    1  UNL1       -0.2089
     12 N         140.4873  145.4242  157.2682 N.ar    1  UNL1       -0.2826
     13 C         141.3524  144.9190  156.1518 C.ar    1  UNL1        0.1826
     14 N         141.1388  145.8068  154.9618 N.ar    1  UNL1       -0.2280
     15 C         140.1417  146.8607  155.3428 C.ar    1  UNL1        0.0786
     16 C         139.6360  147.9584  154.4542 C.3     1  UNL1        0.0538
     17 C         139.7391  146.6242  156.7682 C.ar    1  UNL1        0.0963
     18 O         138.7812  143.0021  157.7401 O.3     1  UNL1       -0.4551
     19 C         139.3915  141.8738  156.9627 C.3     1  UNL1        0.2543
     20 N         141.1234  140.6970  165.6693 N.pl3   1  UNL1       -0.2786
     21 H         141.8586  140.1187  165.3625 H       1  UNL1        0.1555
     22 N         139.3968  139.7979  167.5011 N.ar    1  UNL1       -0.2383
     23 N         139.2524  139.9485  168.9865 N.ar    1  UNL1       -0.1729
     24 C         140.3734  140.8169  169.4757 C.ar    1  UNL1        0.0773
     25 C         141.2107  141.2030  168.2925 C.ar    1  UNL1        0.0244
     26 C         140.6072  140.5732  167.0722 C.ar    1  UNL1        0.1275
     27 C         142.4146  142.0781  168.4792 C.3     1  UNL1        0.0305
     28 C         142.7811  142.5671  169.8491 C.3     1  UNL1        0.0052
     29 C         141.9437  142.1810  171.0322 C.3     1  UNL1        0.0067
     30 C         140.7399  141.3059  170.8455 C.3     1  UNL1        0.0474
     31 C         137.3825  138.1869  167.1897 C.3     1  UNL1        0.0285
     32 C         138.4902  139.0103  166.6024 C.3     1  UNL1        0.1289
@<TRIPOS>BOND
     1    31    32    1
     2    32    22    1
     3    22    23   ar
     4    23    24   ar
     5    24    25   ar
     6    25    26   ar
     7    26    20    1
     8    20     1    1
     9     1     2   ar
    10     2     3   ar
    11     3     6    1
    12     6     7   ar
    13     7     8   ar
    14     8     9   ar
    15     9    12    1
    16    12    13   ar
    17    13    14   ar
    18    14    15   ar
    19    15    16    1
    20    15    17   ar
    21     9    10   ar
    22    10    18    1
    23    18    19    1
    24    10    11   ar
    25     3     4   ar
    26     4     5   ar
    27    25    27    1
    28    27    28    1
    29    28    29    1
    30    29    30    1
    31    26    22   ar
    32     5     1   ar
    33    30    24    1
    34    11     6   ar
    35    17    12   ar
    36    20    21    1
@<TRIPOS>MOLECULE
*****
 32 36 0 0 0
SMALL
GASTEIGER

@<TRIPOS>ATOM
      1 C         143.3771  141.9257  164.6220 C.ar    1  UNL1        0.1646
      2 N         142.4567  142.0170  163.4411 N.ar    1  UNL1       -0.2224
      3 C         142.8553  143.2173  162.6345 C.ar    1  UNL1        0.1074
      4 C         144.0220  143.8677  163.3170 C.ar    1  UNL1        0.0588
      5 S         144.3445  143.0695  164.5453 S.2     1  UNL1       -0.0508
      6 C         142.2019  143.6850  161.3679 C.ar    1  UNL1        0.1026
      7 C         140.8533  144.3399  161.4172 C.ar    1  UNL1        0.0224
      8 C         140.1999  144.8076  160.1506 C.ar    1  UNL1        0.0239
      9 C         140.8951  144.6204  158.8347 C.ar    1  UNL1        0.1189
     10 C         142.2436  143.9655  158.7854 C.ar    1  UNL1        0.2416
     11 N         142.8971  143.4978  160.0520 N.ar    1  UNL1       -0.2089
     12 N         140.2416  145.0881  157.5681 N.ar    1  UNL1       -0.2826
     13 C         139.5107  144.2254  156.5825 C.ar    1  UNL1        0.1826
     14 N         139.0217  145.1047  155.4700 N.ar    1  UNL1       -0.2280
     15 C         139.4505  146.5109  155.7680 C.ar    1  UNL1        0.0786
     16 C         139.1738  147.7158  154.9185 C.3     1  UNL1        0.0538
     17 C         140.2044  146.5006  157.0647 C.ar    1  UNL1        0.0963
     18 O         142.9387  143.7783  157.4694 O.3     1  UNL1       -0.4551
     19 C         143.9879  142.7168  157.3198 C.3     1  UNL1        0.2543
     20 N         143.3372  140.8750  165.6919 N.pl3   1  UNL1       -0.2786
     21 H         144.0987  140.2619  165.8084 H       1  UNL1        0.1555
     22 N         141.9481  141.4484  167.9024 N.ar    1  UNL1       -0.2383
     23 N         140.6094  141.0477  168.4476 N.ar    1  UNL1       -0.1729
     24 C         139.9710  140.1099  167.4663 C.ar    1  UNL1        0.0773
     25 C         140.9151  139.9311  166.3145 C.ar    1  UNL1        0.0244
     26 C         142.1370  140.7583  166.5841 C.ar    1  UNL1        0.1275
     27 C         140.5402  139.0382  165.1690 C.3     1  UNL1        0.0305
     28 C         139.2212  138.3241  165.1754 C.3     1  UNL1        0.0052
     29 C         138.2770  138.5029  166.3272 C.3     1  UNL1        0.0067
     30 C         138.6519  139.3958  167.4726 C.3     1  UNL1        0.0474
     31 C         143.5963  141.9747  169.8406 C.3     1  UNL1        0.0285
     32 C         142.9261  142.3762  168.5601 C.3     1  UNL1        0.1289
@<TRIPOS>BOND
     1    31    32    1
     2    32    22    1
     3    22    23   ar
     4    23    24   ar
     5    24    25   ar
     6    25    26   ar
     7    26    20    1
     8    20     1    1
     9     1     2   ar
    10     2     3   ar
    11     3     6    1
    12     6     7   ar
    13     7     8   ar
    14     8     9   ar
    15     9    12    1
    16    12    13   ar
    17    13    14   ar
    18    14    15   ar
    19    15    16    1
    20    15    17   ar
    21     9    10   ar
    22    10    18    1
    23    18    19    1
    24    10    11   ar
    25     3     4   ar
    26     4     5   ar
    27    25    27    1
    28    27    28    1
    29    28    29    1
    30    29    30    1
    31    26    22   ar
    32     5     1   ar
    33    30    24    1
    34    11     6   ar
    35    17    12   ar
    36    20    21    1
@<TRIPOS>MOLECULE
*****
 32 36 0 0 0
SMALL
GASTEIGER

@<TRIPOS>ATOM
      1 C         143.2625  142.0625  164.9861 C.ar    1  UNL1        0.1646
      2 N         142.3427  142.1068  163.8020 N.ar    1  UNL1       -0.2224
      3 C         142.7379  143.2776  162.9517 C.ar    1  UNL1        0.1074
      4 C         143.9019  143.9568  163.6102 C.ar    1  UNL1        0.0588
      5 S         144.2261  143.2059  164.8676 S.2     1  UNL1       -0.0508
      6 C         142.0839  143.6958  161.6681 C.ar    1  UNL1        0.1026
      7 C         140.6431  144.1129  161.6616 C.ar    1  UNL1        0.0224
      8 C         139.9891  144.5310  160.3781 C.ar    1  UNL1        0.0239
      9 C         140.7760  144.5320  159.1010 C.ar    1  UNL1        0.1189
     10 C         142.2168  144.1149  159.1076 C.ar    1  UNL1        0.2416
     11 N         142.8708  143.6968  160.3911 N.ar    1  UNL1       -0.2089
     12 N         140.1221  144.9502  157.8175 N.ar    1  UNL1       -0.2826
     13 C         139.3979  144.0484  156.8623 C.ar    1  UNL1        0.1826
     14 N         138.9057  144.8844  155.7183 N.ar    1  UNL1       -0.2280
     15 C         139.3256  146.3029  155.9664 C.ar    1  UNL1        0.0786
     16 C         139.0433  147.4750  155.0738 C.3     1  UNL1        0.0538
     17 C         140.0774  146.3435  157.2638 C.ar    1  UNL1        0.0963
     18 O         143.0037  144.1159  157.8305 O.3     1  UNL1       -0.4551
     19 C         143.1394  142.8533  157.0322 C.3     1  UNL1        0.2543
     20 N         143.2251  141.0521  166.0942 N.pl3   1  UNL1       -0.2786
     21 H         144.0354  140.5414  166.3222 H       1  UNL1        0.1555
     22 N         140.8711  139.8484  166.4876 N.ar    1  UNL1       -0.2383
     23 N         139.7895  139.9466  167.5222 N.ar    1  UNL1       -0.1729
     24 C         140.2033  140.9786  168.5290 C.ar    1  UNL1        0.0773
     25 C         141.5407  141.5184  168.1166 C.ar    1  UNL1        0.0244
     26 C         141.9534  140.8199  166.8549 C.ar    1  UNL1        0.1275
     27 C         142.2098  142.5762  168.9432 C.3     1  UNL1        0.0305
     28 C         141.5416  143.0942  170.1821 C.3     1  UNL1        0.0052
     29 C         140.2043  142.5544  170.5945 C.3     1  UNL1        0.0067
     30 C         139.5351  141.4967  169.7680 C.3     1  UNL1        0.0474
     31 C         141.9979  137.9708  165.0895 C.3     1  UNL1        0.0285
     32 C         140.8705  138.9386  165.2950 C.3     1  UNL1        0.1289
@<TRIPOS>BOND
     1    31    32    1
     2    32    22    1
     3    22    23   ar
     4    23    24   ar
     5    24    25   ar
     6    25    26   ar
     7    26    20    1
     8    20     1    1
     9     1     2   ar
    10     2     3   ar
    11     3     6    1
    12     6     7   ar
    13     7     8   ar
    14     8     9   ar
    15     9    12    1
    16    12    13   ar
    17    13    14   ar
    18    14    15   ar
    19    15    16    1
    20    15    17   ar
    21     9    10   ar
    22    10    18    1
    23    18    19    1
    24    10    11   ar
    25     3     4   ar
    26     4     5   ar
    27    25    27    1
    28    27    28    1
    29    28    29    1
    30    29    30    1
    31    26    22   ar
    32     5     1   ar
    33    30    24    1
    34    11     6   ar
    35    17    12   ar
    36    20    21    1
