@<TRIPOS>MOLECULE
*****
 39 41 0 0 0
SMALL
GASTEIGER

@<TRIPOS>ATOM
      1 C         139.2884  139.6206  160.9136 C.ar    1  UNL1        0.0597
      2 C         139.1829  138.7588  162.1368 C.ar    1  UNL1        0.0423
      3 C         138.5127  139.2867  163.3705 C.ar    1  UNL1        0.1504
      4 C         137.9481  140.6764  163.3811 C.ar    1  UNL1        0.0744
      5 C         138.0537  141.5381  162.1580 C.ar    1  UNL1        0.1416
      6 C         138.7238  141.0102  160.9242 C.ar    1  UNL1        0.0416
      7 N         141.4402  138.8591  159.6726 N.am    1  UNL1       -0.2644
      8 C         139.9585  139.0927  159.6798 C.2     1  UNL1        0.2508
      9 O         139.1469  138.7984  158.4531 O.2     1  UNL1       -0.2698
     10 H         141.9728  139.0522  160.4777 H       1  UNL1        0.1566
     11 N         143.1386  136.8288  156.8338 N.ar    1  UNL1       -0.2357
     12 C         143.1444  138.2091  156.2464 C.ar    1  UNL1        0.0988
     13 C         142.5089  139.1377  157.2384 C.ar    1  UNL1        0.0565
     14 C         142.1103  138.3312  158.4388 C.ar    1  UNL1        0.1557
     15 N         142.4995  136.9043  158.1887 N.ar    1  UNL1       -0.1534
     16 C         143.6773  135.5906  156.1808 C.3     1  UNL1        0.2423
     17 P         142.9853  134.2750  156.3818 P.3     1  UNL1        0.3677
     18 O         142.2933  132.9594  156.5828 O.2     1  UNL1       -0.2557
     19 O         144.0378  133.8725  157.3718 O.3     1  UNL1       -0.2928
     20 C         145.2126  131.7312  156.4861 C.3     1  UNL1        0.0352
     21 C         144.3982  132.4259  157.5369 C.3     1  UNL1        0.1515
     22 O         141.9327  134.6775  155.3917 O.3     1  UNL1       -0.2928
     23 C         142.1727  134.4878  153.9232 C.3     1  UNL1        0.1515
     24 C         141.7984  135.5715  152.9560 C.3     1  UNL1        0.0352
     25 O         138.4072  138.4249  164.5938 O.3     1  UNL1       -0.4347
     26 C         138.8785  138.9441  165.9199 C.ar    1  UNL1        0.2494
     27 C         137.9849  138.8534  167.1213 C.ar    1  UNL1        0.1583
     28 N         138.4562  139.3725  168.4474 N.ar    1  UNL1       -0.2195
     29 C         139.8210  139.9823  168.5720 C.ar    1  UNL1        0.2058
     30 C         140.7145  140.0730  167.3705 C.ar    1  UNL1        0.1399
     31 N         140.2432  139.5539  166.0445 N.ar    1  UNL1       -0.2055
     32 S         140.2923  140.5014  169.8980 S.O2    1  UNL1        0.0283
     33 C         140.7636  141.0206  171.2240 C.3     1  UNL1        0.1835
     34 O         139.1662  139.7824  170.5797 O.2     1  UNL1       -0.1671
     35 O         141.4185  141.2205  169.2163 O.2     1  UNL1       -0.1671
     36 O         137.4891  142.9278  162.1686 O.3     1  UNL1       -0.4791
     37 C         138.1046  143.9807  163.0416 C.3     1  UNL1        0.1661
     38 C         137.7447  144.0536  164.4960 C.3     1  UNL1        0.0472
     39 C         139.0801  144.9609  162.4604 C.3     1  UNL1        0.0472
@<TRIPOS>BOND
     1    20    21    1
     2    21    19    1
     3    19    17    1
     4    17    18    2
     5    17    16    1
     6    16    11    1
     7    11    12   ar
     8    12    13   ar
     9    13    14   ar
    10    14     7    1
    11     7     8   am
    12     8     9    2
    13     8     1    1
    14     1     2   ar
    15     2     3   ar
    16     3    25    1
    17    25    26    1
    18    26    27   ar
    19    27    28   ar
    20    28    29   ar
    21    29    32    1
    22    32    33    1
    23    32    34    2
    24    32    35    2
    25    29    30   ar
    26    30    31   ar
    27     3     4   ar
    28     4     5   ar
    29     5    36    1
    30    36    37    1
    31    37    38    1
    32    37    39    1
    33     5     6   ar
    34    14    15   ar
    35    17    22    1
    36    22    23    1
    37    23    24    1
    38    15    11   ar
    39     6     1   ar
    40    31    26   ar
    41     7    10    1
@<TRIPOS>MOLECULE
*****
 39 41 0 0 0
SMALL
GASTEIGER

@<TRIPOS>ATOM
      1 C         139.3699  139.5700  160.7989 C.ar    1  UNL1        0.0597
      2 C         139.2536  138.7087  162.0214 C.ar    1  UNL1        0.0423
      3 C         138.5722  139.2368  163.2489 C.ar    1  UNL1        0.1504
      4 C         138.0072  140.6263  163.2539 C.ar    1  UNL1        0.0744
      5 C         138.1235  141.4877  162.0314 C.ar    1  UNL1        0.1416
      6 C         138.8049  140.9595  160.8039 C.ar    1  UNL1        0.0416
      7 N         141.5490  139.0367  159.4884 N.am    1  UNL1       -0.2644
      8 C         140.0513  139.0419  159.5713 C.2     1  UNL1        0.2508
      9 O         139.2349  138.5190  158.4267 O.2     1  UNL1       -0.2698
     10 H         142.0847  139.3799  160.2397 H       1  UNL1        0.1566
     11 N         143.2266  136.9985  156.6428 N.ar    1  UNL1       -0.2357
     12 C         143.3312  138.3933  156.1008 C.ar    1  UNL1        0.0988
     13 C         142.7154  139.3266  157.1009 C.ar    1  UNL1        0.0565
     14 C         142.2303  138.5085  158.2608 C.ar    1  UNL1        0.1557
     15 N         142.5462  137.0698  157.9778 N.ar    1  UNL1       -0.1534
     16 C         143.7163  135.7515  155.9684 C.3     1  UNL1        0.2423
     17 P         142.9881  134.4554  156.1679 P.3     1  UNL1        0.3677
     18 O         142.2600  133.1592  156.3675 O.2     1  UNL1       -0.2557
     19 O         142.0233  134.8302  155.0823 O.3     1  UNL1       -0.2928
     20 C         141.6636  134.8764  152.5097 C.3     1  UNL1        0.0352
     21 C         142.0932  134.1477  153.7483 C.3     1  UNL1        0.1515
     22 O         143.9530  134.0806  157.2536 O.3     1  UNL1       -0.2928
     23 C         144.2619  132.6365  157.5168 C.3     1  UNL1        0.1515
     24 C         145.5875  132.2475  158.1013 C.3     1  UNL1        0.0352
     25 O         138.4559  138.3755  164.4714 O.3     1  UNL1       -0.4347
     26 C         138.8980  138.9019  165.8046 C.ar    1  UNL1        0.2494
     27 C         137.9767  138.8217  166.9857 C.ar    1  UNL1        0.1583
     28 N         138.4189  139.3482  168.3189 N.ar    1  UNL1       -0.2195
     29 C         139.7824  139.9548  168.4710 C.ar    1  UNL1        0.2058
     30 C         140.7036  140.0349  167.2899 C.ar    1  UNL1        0.1399
     31 N         140.2614  139.5085  165.9567 N.ar    1  UNL1       -0.2055
     32 S         140.2245  140.4812  169.8041 S.O2    1  UNL1        0.0283
     33 C         140.6667  141.0076  171.1373 C.3     1  UNL1        0.1835
     34 O         138.7991  140.4965  170.2708 O.2     1  UNL1       -0.1671
     35 O         141.6500  140.4659  169.3374 O.2     1  UNL1       -0.1671
     36 O         137.5585  142.8772  162.0364 O.3     1  UNL1       -0.4791
     37 C         138.1400  143.9200  162.9443 C.3     1  UNL1        0.1661
     38 C         137.7070  143.9915  164.3786 C.3     1  UNL1        0.0472
     39 C         139.1545  144.8915  162.4178 C.3     1  UNL1        0.0472
@<TRIPOS>BOND
     1    20    21    1
     2    21    19    1
     3    19    17    1
     4    17    18    2
     5    17    16    1
     6    16    11    1
     7    11    12   ar
     8    12    13   ar
     9    13    14   ar
    10    14     7    1
    11     7     8   am
    12     8     9    2
    13     8     1    1
    14     1     2   ar
    15     2     3   ar
    16     3    25    1
    17    25    26    1
    18    26    27   ar
    19    27    28   ar
    20    28    29   ar
    21    29    32    1
    22    32    33    1
    23    32    34    2
    24    32    35    2
    25    29    30   ar
    26    30    31   ar
    27     3     4   ar
    28     4     5   ar
    29     5    36    1
    30    36    37    1
    31    37    38    1
    32    37    39    1
    33     5     6   ar
    34    14    15   ar
    35    17    22    1
    36    22    23    1
    37    23    24    1
    38    15    11   ar
    39     6     1   ar
    40    31    26   ar
    41     7    10    1
@<TRIPOS>MOLECULE
*****
 39 41 0 0 0
SMALL
GASTEIGER

@<TRIPOS>ATOM
      1 C         138.3614  140.3800  160.9318 C.ar    1  UNL1        0.0597
      2 C         138.4713  139.3663  162.0319 C.ar    1  UNL1        0.0423
      3 C         138.2521  139.7795  163.4570 C.ar    1  UNL1        0.1504
      4 C         137.9230  141.2064  163.7821 C.ar    1  UNL1        0.0744
      5 C         137.8130  142.2201  162.6820 C.ar    1  UNL1        0.1416
      6 C         138.0323  141.8069  161.2568 C.ar    1  UNL1        0.0416
      7 N         139.9015  139.3935  159.0865 N.am    1  UNL1       -0.2644
      8 C         138.5806  139.9669  159.5065 C.2     1  UNL1        0.2508
      9 O         137.4789  140.1271  158.5012 O.2     1  UNL1       -0.2698
     10 H         140.6246  139.2883  159.7463 H       1  UNL1        0.1566
     11 N         140.5854  137.6402  155.6918 N.ar    1  UNL1       -0.2357
     12 C         140.3308  139.0491  155.2442 C.ar    1  UNL1        0.0988
     13 C         140.0436  139.8774  156.4615 C.ar    1  UNL1        0.0565
     14 C         140.1207  138.9803  157.6612 C.ar    1  UNL1        0.1557
     15 N         140.4555  137.5977  157.1856 N.ar    1  UNL1       -0.1534
     16 C         140.9123  136.4779  154.8019 C.3     1  UNL1        0.2423
     17 P         142.1750  135.6982  155.0200 P.3     1  UNL1        0.3677
     18 O         143.4377  134.9184  155.2380 O.2     1  UNL1       -0.2557
     19 O         142.9775  136.8494  154.4903 O.3     1  UNL1       -0.2928
     20 C         144.0901  138.9160  155.6043 C.3     1  UNL1        0.0352
     21 C         144.0762  137.4431  155.3213 C.3     1  UNL1        0.1515
     22 O         141.3725  134.5469  155.5496 O.3     1  UNL1       -0.2928
     23 C         141.5808  133.1690  154.9945 C.3     1  UNL1        0.1515
     24 C         141.2343  132.8762  153.5648 C.3     1  UNL1        0.0352
     25 O         138.3620  138.7658  164.5572 O.3     1  UNL1       -0.4347
     26 C         138.8616  139.1784  165.9100 C.ar    1  UNL1        0.2494
     27 C         137.9919  138.9958  167.1185 C.ar    1  UNL1        0.1583
     28 N         138.4915  139.4085  168.4713 N.ar    1  UNL1       -0.2195
     29 C         139.8608  140.0036  168.6157 C.ar    1  UNL1        0.2058
     30 C         140.7305  140.1862  167.4073 C.ar    1  UNL1        0.1399
     31 N         140.2309  139.7736  166.0544 N.ar    1  UNL1       -0.2055
     32 S         140.3605  140.4163  169.9685 S.O2    1  UNL1        0.0283
     33 C         140.8601  140.8289  171.3213 C.3     1  UNL1        0.1835
     34 O         141.7154  139.8651  169.6362 O.2     1  UNL1       -0.1671
     35 O         139.0055  140.9674  170.3008 O.2     1  UNL1       -0.1671
     36 O         137.4839  143.6470  163.0071 O.3     1  UNL1       -0.4791
     37 C         138.5444  144.5551  163.5553 C.3     1  UNL1        0.1661
     38 C         139.4539  145.2961  162.6205 C.3     1  UNL1        0.0472
     39 C         138.6955  144.7224  165.0383 C.3     1  UNL1        0.0472
@<TRIPOS>BOND
     1    20    21    1
     2    21    19    1
     3    19    17    1
     4    17    18    2
     5    17    16    1
     6    16    11    1
     7    11    12   ar
     8    12    13   ar
     9    13    14   ar
    10    14     7    1
    11     7     8   am
    12     8     9    2
    13     8     1    1
    14     1     2   ar
    15     2     3   ar
    16     3    25    1
    17    25    26    1
    18    26    27   ar
    19    27    28   ar
    20    28    29   ar
    21    29    32    1
    22    32    33    1
    23    32    34    2
    24    32    35    2
    25    29    30   ar
    26    30    31   ar
    27     3     4   ar
    28     4     5   ar
    29     5    36    1
    30    36    37    1
    31    37    38    1
    32    37    39    1
    33     5     6   ar
    34    14    15   ar
    35    17    22    1
    36    22    23    1
    37    23    24    1
    38    15    11   ar
    39     6     1   ar
    40    31    26   ar
    41     7    10    1
@<TRIPOS>MOLECULE
*****
 39 41 0 0 0
SMALL
GASTEIGER

@<TRIPOS>ATOM
      1 C         141.5649  137.8891  157.6646 C.ar    1  UNL1        0.0597
      2 C         142.5425  136.9296  157.0535 C.ar    1  UNL1        0.0423
      3 C         142.1009  136.0051  155.9580 C.ar    1  UNL1        0.1504
      4 C         140.6817  136.0400  155.4736 C.ar    1  UNL1        0.0744
      5 C         139.7041  136.9994  156.0848 C.ar    1  UNL1        0.1416
      6 C         140.1456  137.9240  157.1803 C.ar    1  UNL1        0.0416
      7 N         143.4530  139.1895  158.8869 N.am    1  UNL1       -0.2644
      8 C         142.0064  138.8137  158.7602 C.2     1  UNL1        0.2508
      9 O         141.0013  139.3625  159.7290 O.2     1  UNL1       -0.2698
     10 H         144.1127  138.8293  158.2511 H       1  UNL1        0.1566
     11 N         144.6349  140.9538  162.1359 N.ar    1  UNL1       -0.2357
     12 C         144.5131  142.1202  161.2006 C.ar    1  UNL1        0.0988
     13 C         144.0556  141.6012  159.8696 C.ar    1  UNL1        0.0565
     14 C         143.8945  140.1141  159.9825 C.ar    1  UNL1        0.1557
     15 N         144.2526  139.7140  161.3831 N.ar    1  UNL1       -0.1534
     16 C         145.0636  141.0163  163.5719 C.3     1  UNL1        0.2423
     17 P         144.1351  141.5765  164.6083 P.3     1  UNL1        0.3677
     18 O         143.2066  142.1368  165.6446 O.2     1  UNL1       -0.2557
     19 O         143.4219  140.2589  164.6817 O.3     1  UNL1       -0.2928
     20 C         143.6801  138.2443  166.3016 C.3     1  UNL1        0.0352
     21 C         144.1617  139.0290  165.1174 C.3     1  UNL1        0.1515
     22 O         144.8483  142.8941  164.5348 O.3     1  UNL1       -0.2928
     23 C         144.0754  144.1734  164.6620 C.3     1  UNL1        0.1515
     24 C         143.6889  144.9414  163.4329 C.3     1  UNL1        0.0352
     25 O         143.0786  135.0455  155.3467 O.3     1  UNL1       -0.4347
     26 C         143.1825  133.6444  155.8720 C.ar    1  UNL1        0.2494
     27 C         142.1634  132.6174  155.4760 C.ar    1  UNL1        0.1583
     28 N         142.2673  131.2162  156.0013 N.ar    1  UNL1       -0.2195
     29 C         143.3904  130.8420  156.9226 C.ar    1  UNL1        0.2058
     30 C         144.4094  131.8690  157.3186 C.ar    1  UNL1        0.1399
     31 N         144.3055  133.2701  156.7933 N.ar    1  UNL1       -0.2055
     32 S         143.4943  129.4409  157.4479 S.O2    1  UNL1        0.0283
     33 C         143.5982  128.0397  157.9732 C.3     1  UNL1        0.1835
     34 O         142.6369  128.9536  156.3177 O.2     1  UNL1       -0.1671
     35 O         144.3518  129.9282  158.5781 O.2     1  UNL1       -0.1671
     36 O         138.2848  137.0343  155.6005 O.3     1  UNL1       -0.4791
     37 C         137.9085  137.9120  154.4438 C.3     1  UNL1        0.1661
     38 C         136.5099  137.8806  153.9024 C.3     1  UNL1        0.0472
     39 C         138.9307  138.8212  153.8284 C.3     1  UNL1        0.0472
@<TRIPOS>BOND
     1    20    21    1
     2    21    19    1
     3    19    17    1
     4    17    18    2
     5    17    16    1
     6    16    11    1
     7    11    12   ar
     8    12    13   ar
     9    13    14   ar
    10    14     7    1
    11     7     8   am
    12     8     9    2
    13     8     1    1
    14     1     2   ar
    15     2     3   ar
    16     3    25    1
    17    25    26    1
    18    26    27   ar
    19    27    28   ar
    20    28    29   ar
    21    29    32    1
    22    32    33    1
    23    32    34    2
    24    32    35    2
    25    29    30   ar
    26    30    31   ar
    27     3     4   ar
    28     4     5   ar
    29     5    36    1
    30    36    37    1
    31    37    38    1
    32    37    39    1
    33     5     6   ar
    34    14    15   ar
    35    17    22    1
    36    22    23    1
    37    23    24    1
    38    15    11   ar
    39     6     1   ar
    40    31    26   ar
    41     7    10    1
@<TRIPOS>MOLECULE
*****
 39 41 0 0 0
SMALL
GASTEIGER

@<TRIPOS>ATOM
      1 C         138.4693  142.3559  158.6169 C.ar    1  UNL1        0.0597
      2 C         137.5976  141.3050  157.9958 C.ar    1  UNL1        0.0423
      3 C         137.4188  141.2627  156.5071 C.ar    1  UNL1        0.1504
      4 C         138.1116  142.2713  155.6395 C.ar    1  UNL1        0.0744
      5 C         138.9833  143.3222  156.2606 C.ar    1  UNL1        0.1416
      6 C         139.1622  143.3645  157.7493 C.ar    1  UNL1        0.0416
      7 N         138.9134  143.7051  160.7923 N.am    1  UNL1       -0.2644
      8 C         138.6482  142.3982  160.1056 C.2     1  UNL1        0.2508
      9 O         138.5619  141.1336  160.9076 O.2     1  UNL1       -0.2698
     10 H         138.9701  144.5352  160.2659 H       1  UNL1        0.1566
     11 N         140.0114  143.4339  164.5053 N.ar    1  UNL1       -0.2357
     12 C         138.7236  144.1914  164.6385 C.ar    1  UNL1        0.0988
     13 C         138.1555  144.3852  163.2637 C.ar    1  UNL1        0.0565
     14 C         139.0923  143.7475  162.2810 C.ar    1  UNL1        0.1557
     15 N         140.2392  143.1595  163.0483 N.ar    1  UNL1       -0.1534
     16 C         140.9130  143.0229  165.6313 C.3     1  UNL1        0.2423
     17 P         140.4471  142.0085  166.6333 P.3     1  UNL1        0.3677
     18 O         139.9812  140.9940  167.6351 O.2     1  UNL1       -0.2557
     19 O         140.2216  143.1016  167.6353 O.3     1  UNL1       -0.2928
     20 C         140.4498  144.0087  170.0591 C.3     1  UNL1        0.0352
     21 C         140.7659  142.9676  169.0266 C.3     1  UNL1        0.1515
     22 O         140.6727  140.9153  165.6311 O.3     1  UNL1       -0.2928
     23 C         139.5969  139.9028  165.3709 C.3     1  UNL1        0.1515
     24 C         138.3292  140.3153  164.6834 C.3     1  UNL1        0.0352
     25 O         136.5471  140.2118  155.8860 O.3     1  UNL1       -0.4347
     26 C         135.0547  140.3591  155.9199 C.ar    1  UNL1        0.2494
     27 C         134.3547  141.1497  154.8545 C.ar    1  UNL1        0.1583
     28 N         132.8623  141.2971  154.8885 N.ar    1  UNL1       -0.2195
     29 C         132.0700  140.6538  155.9879 C.ar    1  UNL1        0.2058
     30 C         132.7700  139.8632  157.0532 C.ar    1  UNL1        0.1399
     31 N         134.2624  139.7159  157.0192 N.ar    1  UNL1       -0.2055
     32 S         130.5776  140.8011  156.0218 S.O2    1  UNL1        0.0283
     33 C         129.0853  140.9485  156.0558 C.3     1  UNL1        0.1835
     34 O         130.5165  139.9047  157.2229 O.2     1  UNL1       -0.1671
     35 O         130.6388  141.6976  154.8207 O.2     1  UNL1       -0.1671
     36 O         139.6762  144.3308  155.3930 O.3     1  UNL1       -0.4791
     37 C         140.2028  145.6006  155.9931 C.3     1  UNL1        0.1661
     38 C         141.6420  145.6951  156.4049 C.3     1  UNL1        0.0472
     39 C         139.2901  146.7761  156.1812 C.3     1  UNL1        0.0472
@<TRIPOS>BOND
     1    20    21    1
     2    21    19    1
     3    19    17    1
     4    17    18    2
     5    17    16    1
     6    16    11    1
     7    11    12   ar
     8    12    13   ar
     9    13    14   ar
    10    14     7    1
    11     7     8   am
    12     8     9    2
    13     8     1    1
    14     1     2   ar
    15     2     3   ar
    16     3    25    1
    17    25    26    1
    18    26    27   ar
    19    27    28   ar
    20    28    29   ar
    21    29    32    1
    22    32    33    1
    23    32    34    2
    24    32    35    2
    25    29    30   ar
    26    30    31   ar
    27     3     4   ar
    28     4     5   ar
    29     5    36    1
    30    36    37    1
    31    37    38    1
    32    37    39    1
    33     5     6   ar
    34    14    15   ar
    35    17    22    1
    36    22    23    1
    37    23    24    1
    38    15    11   ar
    39     6     1   ar
    40    31    26   ar
    41     7    10    1
@<TRIPOS>MOLECULE
*****
 39 41 0 0 0
SMALL
GASTEIGER

@<TRIPOS>ATOM
      1 C         137.8741  142.2786  157.4279 C.ar    1  UNL1        0.0597
      2 C         136.9603  141.2568  156.8190 C.ar    1  UNL1        0.0423
      3 C         136.2135  141.5753  155.5578 C.ar    1  UNL1        0.1504
      4 C         136.3805  142.9156  154.9054 C.ar    1  UNL1        0.0744
      5 C         137.2943  143.9374  155.5142 C.ar    1  UNL1        0.1416
      6 C         138.0411  143.6189  156.7755 C.ar    1  UNL1        0.0416
      7 N         138.2724  142.6663  159.9659 N.am    1  UNL1       -0.2644
      8 C         138.6209  141.9601  158.6892 C.2     1  UNL1        0.2508
      9 O         139.7163  140.9355  158.6739 O.2     1  UNL1       -0.2698
     10 H         137.5534  143.3388  159.9759 H       1  UNL1        0.1566
     11 N         139.9134  141.1530  163.1412 N.ar    1  UNL1       -0.2357
     12 C         140.4235  142.5627  163.1951 C.ar    1  UNL1        0.0988
     13 C         139.8708  143.3011  162.0121 C.ar    1  UNL1        0.0565
     14 C         139.0192  142.3478  161.2272 C.ar    1  UNL1        0.1557
     15 N         139.0456  141.0203  161.9250 N.ar    1  UNL1       -0.1534
     16 C         140.2178  140.0669  164.1298 C.3     1  UNL1        0.2423
     17 P         139.5387  138.7345  164.0132 P.3     1  UNL1        0.3677
     18 O         138.8597  137.4021  163.8966 O.2     1  UNL1       -0.2557
     19 O         138.2972  139.3138  164.6239 O.3     1  UNL1       -0.2928
     20 C         137.6829  138.4807  167.0069 C.3     1  UNL1        0.0352
     21 C         138.2281  139.5473  166.1040 C.3     1  UNL1        0.1515
     22 O         140.7803  138.1553  163.4025 O.3     1  UNL1       -0.2928
     23 C         140.8293  137.8698  161.9307 C.3     1  UNL1        0.1515
     24 C         142.1354  137.9391  161.1963 C.3     1  UNL1        0.0352
     25 O         135.2996  140.5534  154.9489 O.3     1  UNL1       -0.4347
     26 C         133.9846  140.2409  155.5994 C.ar    1  UNL1        0.2494
     27 C         132.8407  141.2037  155.4790 C.ar    1  UNL1        0.1583
     28 N         131.5257  140.8912  156.1295 N.ar    1  UNL1       -0.2195
     29 C         131.3547  139.6158  156.9004 C.ar    1  UNL1        0.2058
     30 C         132.4986  138.6530  157.0207 C.ar    1  UNL1        0.1399
     31 N         133.8135  138.9655  156.3702 N.ar    1  UNL1       -0.2055
     32 S         130.0397  139.3032  157.5509 S.O2    1  UNL1        0.0283
     33 C         128.7247  138.9907  158.2014 C.3     1  UNL1        0.1835
     34 O         129.3573  140.2815  156.6414 O.2     1  UNL1       -0.1671
     35 O         130.7221  138.3249  158.4604 O.2     1  UNL1       -0.1671
     36 O         137.4614  145.2777  154.8618 O.3     1  UNL1       -0.4791
     37 C         138.7752  145.9961  154.9497 C.3     1  UNL1        0.1661
     38 C         139.9730  145.4606  154.2229 C.3     1  UNL1        0.0472
     39 C         138.8912  147.2502  155.7646 C.3     1  UNL1        0.0472
@<TRIPOS>BOND
     1    20    21    1
     2    21    19    1
     3    19    17    1
     4    17    18    2
     5    17    16    1
     6    16    11    1
     7    11    12   ar
     8    12    13   ar
     9    13    14   ar
    10    14     7    1
    11     7     8   am
    12     8     9    2
    13     8     1    1
    14     1     2   ar
    15     2     3   ar
    16     3    25    1
    17    25    26    1
    18    26    27   ar
    19    27    28   ar
    20    28    29   ar
    21    29    32    1
    22    32    33    1
    23    32    34    2
    24    32    35    2
    25    29    30   ar
    26    30    31   ar
    27     3     4   ar
    28     4     5   ar
    29     5    36    1
    30    36    37    1
    31    37    38    1
    32    37    39    1
    33     5     6   ar
    34    14    15   ar
    35    17    22    1
    36    22    23    1
    37    23    24    1
    38    15    11   ar
    39     6     1   ar
    40    31    26   ar
    41     7    10    1
@<TRIPOS>MOLECULE
*****
 39 41 0 0 0
SMALL
GASTEIGER

@<TRIPOS>ATOM
      1 C         138.4483  142.1579  158.8657 C.ar    1  UNL1        0.0597
      2 C         137.5677  141.1316  158.2167 C.ar    1  UNL1        0.0423
      3 C         137.4009  141.1213  156.7261 C.ar    1  UNL1        0.1504
      4 C         138.1147  142.1371  155.8844 C.ar    1  UNL1        0.0744
      5 C         138.9954  143.1634  156.5334 C.ar    1  UNL1        0.1416
      6 C         139.1622  143.1738  158.0240 C.ar    1  UNL1        0.0416
      7 N         138.7718  143.4703  161.0844 N.am    1  UNL1       -0.2644
      8 C         138.6152  142.1683  160.3564 C.2     1  UNL1        0.2508
      9 O         138.6254  140.8766  161.1189 O.2     1  UNL1       -0.2698
     10 H         138.7651  144.3181  160.5839 H       1  UNL1        0.1566
     11 N         139.8748  143.1878  164.7951 N.ar    1  UNL1       -0.2357
     12 C         138.5160  143.8057  164.9429 C.ar    1  UNL1        0.0988
     13 C         137.9374  143.9867  163.5708 C.ar    1  UNL1        0.0565
     14 C         138.9387  143.4807  162.5751 C.ar    1  UNL1        0.1557
     15 N         140.1361  142.9870  163.3318 N.ar    1  UNL1       -0.1534
     16 C         140.8085  142.8331  165.9142 C.3     1  UNL1        0.2423
     17 P         140.3494  141.9220  167.0138 P.3     1  UNL1        0.3677
     18 O         139.8903  141.0110  168.1135 O.2     1  UNL1       -0.2557
     19 O         139.8599  140.9373  165.9937 O.3     1  UNL1       -0.2928
     20 C         138.4862  138.7994  165.4532 C.3     1  UNL1        0.0352
     21 C         139.2416  139.6442  166.4359 C.3     1  UNL1        0.1515
     22 O         140.8389  142.9069  168.0340 O.3     1  UNL1       -0.2928
     23 C         141.6884  142.4408  169.1790 C.3     1  UNL1        0.1515
     24 C         143.1802  142.3849  169.0320 C.3     1  UNL1        0.0352
     25 O         136.5202  140.0950  156.0770 O.3     1  UNL1       -0.4347
     26 C         135.0363  140.3070  156.0219 C.ar    1  UNL1        0.2494
     27 C         134.4332  141.1004  154.9007 C.ar    1  UNL1        0.1583
     28 N         132.9493  141.3125  154.8456 N.ar    1  UNL1       -0.2195
     29 C         132.0685  140.7312  155.9116 C.ar    1  UNL1        0.2058
     30 C         132.6716  139.9378  157.0327 C.ar    1  UNL1        0.1399
     31 N         134.1555  139.7258  157.0878 N.ar    1  UNL1       -0.2055
     32 S         130.5846  140.9433  155.8564 S.O2    1  UNL1        0.0283
     33 C         129.1007  141.1553  155.8013 C.3     1  UNL1        0.1835
     34 O         130.7965  142.2359  155.1255 O.2     1  UNL1       -0.1671
     35 O         130.3727  139.6507  156.5874 O.2     1  UNL1       -0.1671
     36 O         139.7092  144.1793  155.6917 O.3     1  UNL1       -0.4791
     37 C         139.3267  145.6271  155.7781 C.3     1  UNL1        0.1661
     38 C         138.1563  146.1418  154.9938 C.3     1  UNL1        0.0472
     39 C         140.1146  146.5603  156.6490 C.3     1  UNL1        0.0472
@<TRIPOS>BOND
     1    20    21    1
     2    21    19    1
     3    19    17    1
     4    17    18    2
     5    17    16    1
     6    16    11    1
     7    11    12   ar
     8    12    13   ar
     9    13    14   ar
    10    14     7    1
    11     7     8   am
    12     8     9    2
    13     8     1    1
    14     1     2   ar
    15     2     3   ar
    16     3    25    1
    17    25    26    1
    18    26    27   ar
    19    27    28   ar
    20    28    29   ar
    21    29    32    1
    22    32    33    1
    23    32    34    2
    24    32    35    2
    25    29    30   ar
    26    30    31   ar
    27     3     4   ar
    28     4     5   ar
    29     5    36    1
    30    36    37    1
    31    37    38    1
    32    37    39    1
    33     5     6   ar
    34    14    15   ar
    35    17    22    1
    36    22    23    1
    37    23    24    1
    38    15    11   ar
    39     6     1   ar
    40    31    26   ar
    41     7    10    1
@<TRIPOS>MOLECULE
*****
 39 41 0 0 0
SMALL
GASTEIGER

@<TRIPOS>ATOM
      1 C         138.0504  141.5411  158.2162 C.ar    1  UNL1        0.0597
      2 C         137.0821  140.7527  157.3851 C.ar    1  UNL1        0.0423
      3 C         136.6837  141.2476  156.0264 C.ar    1  UNL1        0.1504
      4 C         137.2535  142.5309  155.4987 C.ar    1  UNL1        0.0744
      5 C         138.2218  143.3193  156.3298 C.ar    1  UNL1        0.1416
      6 C         138.6203  142.8244  157.6885 C.ar    1  UNL1        0.0416
      7 N         137.5646  140.0848  160.3122 N.am    1  UNL1       -0.2644
      8 C         138.4490  141.0463  159.5750 C.2     1  UNL1        0.2508
      9 O         139.7319  141.5129  160.1966 O.2     1  UNL1       -0.2698
     10 H         136.7226  139.7786  159.9042 H       1  UNL1        0.1566
     11 N         138.3408  139.4725  164.0656 N.ar    1  UNL1       -0.2357
     12 C         138.8119  138.1843  163.4583 C.ar    1  UNL1        0.0988
     13 C         138.5785  138.2569  161.9783 C.ar    1  UNL1        0.0565
     14 C         137.9631  139.5899  161.6710 C.ar    1  UNL1        0.1557
     15 N         137.8163  140.3412  162.9610 N.ar    1  UNL1       -0.1534
     16 C         138.3864  139.8293  165.5218 C.3     1  UNL1        0.2423
     17 P         139.6836  140.2394  166.1534 P.3     1  UNL1        0.3677
     18 O         140.9809  140.6496  166.7849 O.2     1  UNL1       -0.2557
     19 O         139.2528  139.6121  167.4460 O.3     1  UNL1       -0.2928
     20 C         138.8577  140.3386  169.9089 C.3     1  UNL1        0.0352
     21 C         139.7847  140.1350  168.7473 C.3     1  UNL1        0.1515
     22 O         140.1145  140.8667  164.8607 O.3     1  UNL1       -0.2928
     23 C         141.1322  141.9687  164.8644 C.3     1  UNL1        0.1515
     24 C         140.7207  143.3708  164.5257 C.3     1  UNL1        0.0352
     25 O         135.7153  140.4592  155.1952 O.3     1  UNL1       -0.4347
     26 C         134.3272  140.2024  155.7024 C.ar    1  UNL1        0.2494
     27 C         133.2465  141.2180  155.4770 C.ar    1  UNL1        0.1583
     28 N         131.8584  140.9613  155.9842 N.ar    1  UNL1       -0.2195
     29 C         131.5510  139.6889  156.7169 C.ar    1  UNL1        0.2058
     30 C         132.6317  138.6734  156.9423 C.ar    1  UNL1        0.1399
     31 N         134.0198  138.9302  156.4351 N.ar    1  UNL1       -0.2055
     32 S         130.1629  139.4322  157.2241 S.O2    1  UNL1        0.0283
     33 C         128.7749  139.1754  157.7314 C.3     1  UNL1        0.1835
     34 O         129.6107  140.3590  156.1820 O.2     1  UNL1       -0.1671
     35 O         130.7152  138.5053  158.2662 O.2     1  UNL1       -0.1671
     36 O         138.7916  144.6026  155.8021 O.3     1  UNL1       -0.4791
     37 C         140.1262  145.0860  156.2869 C.3     1  UNL1        0.1661
     38 C         141.3856  144.4643  155.7602 C.3     1  UNL1        0.0472
     39 C         140.2015  146.1911  157.2984 C.3     1  UNL1        0.0472
@<TRIPOS>BOND
     1    20    21    1
     2    21    19    1
     3    19    17    1
     4    17    18    2
     5    17    16    1
     6    16    11    1
     7    11    12   ar
     8    12    13   ar
     9    13    14   ar
    10    14     7    1
    11     7     8   am
    12     8     9    2
    13     8     1    1
    14     1     2   ar
    15     2     3   ar
    16     3    25    1
    17    25    26    1
    18    26    27   ar
    19    27    28   ar
    20    28    29   ar
    21    29    32    1
    22    32    33    1
    23    32    34    2
    24    32    35    2
    25    29    30   ar
    26    30    31   ar
    27     3     4   ar
    28     4     5   ar
    29     5    36    1
    30    36    37    1
    31    37    38    1
    32    37    39    1
    33     5     6   ar
    34    14    15   ar
    35    17    22    1
    36    22    23    1
    37    23    24    1
    38    15    11   ar
    39     6     1   ar
    40    31    26   ar
    41     7    10    1
@<TRIPOS>MOLECULE
*****
 39 41 0 0 0
SMALL
GASTEIGER

@<TRIPOS>ATOM
      1 C         142.2221  140.5705  160.6910 C.ar    1  UNL1        0.0597
      2 C         143.0077  140.7703  161.9530 C.ar    1  UNL1        0.0423
      3 C         142.4791  141.6695  163.0310 C.ar    1  UNL1        0.1504
      4 C         141.1650  142.3690  162.8468 C.ar    1  UNL1        0.0744
      5 C         140.3795  142.1692  161.5847 C.ar    1  UNL1        0.1416
      6 C         140.9080  141.2699  160.5068 C.ar    1  UNL1        0.0416
      7 N         141.8586  139.2507  158.4828 N.am    1  UNL1       -0.2644
      8 C         142.7506  139.6712  159.6129 C.2     1  UNL1        0.2508
      9 O         144.1713  139.1926  159.6652 O.2     1  UNL1       -0.2698
     10 H         140.9262  139.5649  158.4485 H       1  UNL1        0.1566
     11 N         143.2870  136.4170  156.2477 N.ar    1  UNL1       -0.2357
     12 C         143.1138  137.5183  155.2441 C.ar    1  UNL1        0.0988
     13 C         142.5576  138.7139  155.9592 C.ar    1  UNL1        0.0565
     14 C         142.3871  138.3514  157.4048 C.ar    1  UNL1        0.1557
     15 N         142.8379  136.9319  157.5830 N.ar    1  UNL1       -0.1534
     16 C         143.8164  135.0423  155.9655 C.3     1  UNL1        0.2423
     17 P         143.1401  133.8418  156.5584 P.3     1  UNL1        0.3677
     18 O         142.4638  132.6413  157.1512 O.2     1  UNL1       -0.2557
     19 O         144.3328  133.6034  157.4363 O.3     1  UNL1       -0.2928
     20 C         145.2016  131.3769  156.4176 C.3     1  UNL1        0.0352
     21 C         144.8651  132.2127  157.6168 C.3     1  UNL1        0.1515
     22 O         141.9474  134.0802  155.6804 O.3     1  UNL1       -0.2928
     23 C         141.3114  132.9337  154.9516 C.3     1  UNL1        0.1515
     24 C         141.8033  132.5460  153.5886 C.3     1  UNL1        0.0352
     25 O         143.2647  141.8694  164.2931 O.3     1  UNL1       -0.4347
     26 C         142.6646  141.4981  165.6168 C.ar    1  UNL1        0.2494
     27 C         141.8596  140.2392  165.7486 C.ar    1  UNL1        0.1583
     28 N         141.2595  139.8679  167.0723 N.ar    1  UNL1       -0.2195
     29 C         141.4644  140.7556  168.2640 C.ar    1  UNL1        0.2058
     30 C         142.2693  142.0144  168.1322 C.ar    1  UNL1        0.1399
     31 N         142.8694  142.3856  166.8085 N.ar    1  UNL1       -0.2055
     32 S         140.8642  140.3843  169.5877 S.O2    1  UNL1        0.0283
     33 C         140.2641  140.0130  170.9113 C.3     1  UNL1        0.1835
     34 O         139.8410  141.4694  169.4281 O.2     1  UNL1       -0.1671
     35 O         141.8875  139.2992  169.7472 O.2     1  UNL1       -0.1671
     36 O         139.0653  142.8686  161.4006 O.3     1  UNL1       -0.4791
     37 C         138.0805  142.9242  162.5306 C.3     1  UNL1        0.1661
     38 C         137.7482  144.2389  163.1718 C.3     1  UNL1        0.0472
     39 C         137.4280  141.6651  163.0195 C.3     1  UNL1        0.0472
@<TRIPOS>BOND
     1    20    21    1
     2    21    19    1
     3    19    17    1
     4    17    18    2
     5    17    16    1
     6    16    11    1
     7    11    12   ar
     8    12    13   ar
     9    13    14   ar
    10    14     7    1
    11     7     8   am
    12     8     9    2
    13     8     1    1
    14     1     2   ar
    15     2     3   ar
    16     3    25    1
    17    25    26    1
    18    26    27   ar
    19    27    28   ar
    20    28    29   ar
    21    29    32    1
    22    32    33    1
    23    32    34    2
    24    32    35    2
    25    29    30   ar
    26    30    31   ar
    27     3     4   ar
    28     4     5   ar
    29     5    36    1
    30    36    37    1
    31    37    38    1
    32    37    39    1
    33     5     6   ar
    34    14    15   ar
    35    17    22    1
    36    22    23    1
    37    23    24    1
    38    15    11   ar
    39     6     1   ar
    40    31    26   ar
    41     7    10    1
