@<TRIPOS>MOLECULE
*****
 31 35 0 0 0
SMALL
GASTEIGER

@<TRIPOS>ATOM
      1 C         140.0304  145.7808  162.0585 C.3     1  UNL1        0.0730
      2 C         142.6692  138.6131  170.2395 C.3     1  UNL1        0.0950
      3 C         142.3155  139.5737  169.1431 C.ar    1  UNL1        0.2062
      4 N         141.0673  140.4020  169.0651 N.ar    1  UNL1       -0.2121
      5 C         141.1284  141.2149  167.8059 C.ar    1  UNL1        0.1182
      6 C         140.1791  142.2097  167.2065 C.ar    1  UNL1        0.0178
      7 C         140.5159  142.8787  165.9068 C.ar    1  UNL1       -0.0230
      8 C         141.8017  142.5529  165.2067 C.ar    1  UNL1       -0.0216
      9 C         142.7509  141.5581  165.8060 C.ar    1  UNL1        0.0346
     10 C         142.4143  140.8891  167.1057 C.ar    1  UNL1        0.1640
     11 O         143.1480  139.8748  167.9321 O.2     1  UNL1       -0.4384
     12 C         142.3270  143.1008  163.9128 C.3     1  UNL1        0.0434
     13 C         141.6960  144.1099  162.9997 C.3     1  UNL1        0.0768
     14 N         140.3841  144.8201  163.1549 N.3     1  UNL1       -0.2720
     15 C         139.3789  144.6969  164.2615 C.3     1  UNL1        0.0768
     16 C         139.4376  143.8329  165.4862 C.3     1  UNL1        0.0434
     17 C         140.6292  145.6142  160.6932 C.3     1  UNL1        0.0294
     18 C         139.9198  144.7925  159.6581 C.3     1  UNL1        0.0666
     19 S         139.9120  143.2963  159.7644 S.3     1  UNL1       -0.0756
     20 C         139.1264  142.6258  160.8522 C.ar    1  UNL1        0.1932
     21 N         137.7611  143.0251  161.3280 N.ar    1  UNL1       -0.1221
     22 N         137.3589  142.0843  162.4250 N.ar    1  UNL1       -0.1282
     23 C         138.4758  141.1036  162.6270 C.ar    1  UNL1        0.1683
     24 N         139.5681  141.4382  161.6550 N.ar    1  UNL1       -0.2884
     25 C         140.8730  140.7126  161.5111 C.3     1  UNL1        0.1340
     26 C         138.4966  139.9846  163.6258 C.ar    1  UNL1        0.0551
     27 C         138.2082  140.2639  165.0711 C.ar    1  UNL1        0.0062
     28 C         138.2291  139.1450  166.0698 C.ar    1  UNL1        0.0208
     29 C         138.5383  137.7468  165.6234 C.ar    1  UNL1        0.0989
     30 N         138.8266  137.4675  164.1781 N.ar    1  UNL1       -0.2422
     31 C         138.8058  138.5864  163.1793 C.ar    1  UNL1        0.1019
@<TRIPOS>BOND
     1     2     3    1
     2     3     4   ar
     3     4     5   ar
     4     5     6   ar
     5     6     7   ar
     6     7     8   ar
     7     8     9   ar
     8     9    10   ar
     9    10    11   ar
    10     8    12    1
    11    12    13    1
    12    13    14    1
    13    14     1    1
    14     1    17    1
    15    17    18    1
    16    18    19    1
    17    19    20    1
    18    20    21   ar
    19    21    22   ar
    20    22    23   ar
    21    23    26    1
    22    26    27   ar
    23    27    28   ar
    24    28    29   ar
    25    29    30   ar
    26    30    31   ar
    27    23    24   ar
    28    24    25    1
    29    14    15    1
    30    15    16    1
    31    11     3   ar
    32    24    20   ar
    33    10     5   ar
    34    31    26   ar
    35    16     7    1
@<TRIPOS>MOLECULE
*****
 31 35 0 0 0
SMALL
GASTEIGER

@<TRIPOS>ATOM
      1 C         140.3129  145.4873  161.9341 C.3     1  UNL1        0.0730
      2 C         142.6417  138.5025  170.3636 C.3     1  UNL1        0.0950
      3 C         142.3296  139.4386  169.2338 C.ar    1  UNL1        0.2062
      4 N         143.0709  139.5286  167.9329 N.ar    1  UNL1       -0.2121
      5 C         142.4209  140.5947  167.1018 C.ar    1  UNL1        0.1182
      6 C         142.7221  141.1209  165.7298 C.ar    1  UNL1        0.0178
      7 C         141.8802  142.2161  165.1450 C.ar    1  UNL1       -0.0230
      8 C         140.7372  142.7849  165.9322 C.ar    1  UNL1       -0.0216
      9 C         140.4359  142.2587  167.3041 C.ar    1  UNL1        0.0346
     10 C         141.2777  141.1636  167.8890 C.ar    1  UNL1        0.1640
     11 O         141.2214  140.4491  169.2067 O.2     1  UNL1       -0.4384
     12 C         139.7804  143.8716  165.5398 C.3     1  UNL1        0.0434
     13 C         139.7305  144.6576  164.2631 C.3     1  UNL1        0.0768
     14 N         140.6250  144.5512  163.0638 N.3     1  UNL1       -0.2720
     15 C         141.7903  143.6325  162.8447 C.3     1  UNL1        0.0768
     16 C         142.3490  142.5933  163.7709 C.3     1  UNL1        0.0434
     17 C         140.9507  145.2821  160.5919 C.3     1  UNL1        0.0294
     18 C         140.1188  144.8348  159.4267 C.3     1  UNL1        0.0666
     19 S         139.6915  143.4012  159.3166 S.3     1  UNL1       -0.0756
     20 C         139.0353  142.7226  160.4823 C.ar    1  UNL1        0.1932
     21 N         137.7720  143.1617  161.1613 N.ar    1  UNL1       -0.1221
     22 N         137.4831  142.1962  162.2723 N.ar    1  UNL1       -0.1282
     23 C         138.5680  141.1604  162.2800 C.ar    1  UNL1        0.1683
     24 N         139.5274  141.4857  161.1737 N.ar    1  UNL1       -0.2884
     25 C         140.7619  140.7102  160.8208 C.3     1  UNL1        0.1340
     26 C         138.6748  140.0025  163.2276 C.ar    1  UNL1        0.0551
     27 C         138.6760  140.2427  164.7082 C.ar    1  UNL1        0.0062
     28 C         138.7828  139.0848  165.6558 C.ar    1  UNL1        0.0208
     29 C         138.8885  137.6867  165.1228 C.ar    1  UNL1        0.0989
     30 N         138.8873  137.4465  163.6421 N.ar    1  UNL1       -0.2422
     31 C         138.7805  138.6044  162.6946 C.ar    1  UNL1        0.1019
@<TRIPOS>BOND
     1     2     3    1
     2     3     4   ar
     3     4     5   ar
     4     5     6   ar
     5     6     7   ar
     6     7     8   ar
     7     8     9   ar
     8     9    10   ar
     9    10    11   ar
    10     8    12    1
    11    12    13    1
    12    13    14    1
    13    14     1    1
    14     1    17    1
    15    17    18    1
    16    18    19    1
    17    19    20    1
    18    20    21   ar
    19    21    22   ar
    20    22    23   ar
    21    23    26    1
    22    26    27   ar
    23    27    28   ar
    24    28    29   ar
    25    29    30   ar
    26    30    31   ar
    27    23    24   ar
    28    24    25    1
    29    14    15    1
    30    15    16    1
    31    11     3   ar
    32    24    20   ar
    33    10     5   ar
    34    31    26   ar
    35    16     7    1
@<TRIPOS>MOLECULE
*****
 31 35 0 0 0
SMALL
GASTEIGER

@<TRIPOS>ATOM
      1 C         143.9301  137.9394  161.4498 C.3     1  UNL1        0.0730
      2 C         139.7963  142.8515  170.6177 C.3     1  UNL1        0.0950
      3 C         140.3503  142.1932  169.3890 C.ar    1  UNL1        0.2062
      4 N         141.6093  142.5818  168.6720 N.ar    1  UNL1       -0.2121
      5 C         141.7797  141.6595  167.5015 C.ar    1  UNL1        0.1182
      6 C         142.8363  141.5687  166.4406 C.ar    1  UNL1        0.0178
      7 C         142.7392  140.5192  165.3733 C.ar    1  UNL1       -0.0230
      8 C         141.5857  139.5605  165.3669 C.ar    1  UNL1       -0.0216
      9 C         140.5291  139.6512  166.4277 C.ar    1  UNL1        0.0346
     10 C         140.6261  140.7007  167.4950 C.ar    1  UNL1        0.1640
     11 O         139.7427  141.0306  168.6616 O.2     1  UNL1       -0.4384
     12 C         141.2995  138.4480  164.4022 C.3     1  UNL1        0.0434
     13 C         142.0964  138.0195  163.2057 C.3     1  UNL1        0.0768
     14 N         143.3761  138.5977  162.6785 N.3     1  UNL1       -0.2720
     15 C         144.1751  139.7472  163.2174 C.3     1  UNL1        0.0768
     16 C         143.8917  140.6023  164.4167 C.3     1  UNL1        0.0434
     17 C         143.0053  137.4917  160.3569 C.3     1  UNL1        0.0294
     18 C         142.5729  138.4605  159.2965 C.3     1  UNL1        0.0666
     19 S         141.1149  138.7484  159.0931 S.3     1  UNL1       -0.0756
     20 C         140.2928  139.2917  160.2241 C.ar    1  UNL1        0.1932
     21 N         139.2558  138.5372  161.0020 N.ar    1  UNL1       -0.1221
     22 N         138.6855  139.4640  162.0344 N.ar    1  UNL1       -0.1282
     23 C         139.3701  140.7913  161.8944 C.ar    1  UNL1        0.1683
     24 N         140.3635  140.6848  160.7756 N.ar    1  UNL1       -0.2884
     25 C         141.2686  141.7793  160.2930 C.3     1  UNL1        0.1340
     26 C         139.1074  142.0110  162.7271 C.ar    1  UNL1        0.0551
     27 C         140.0345  142.3652  163.8519 C.ar    1  UNL1        0.0062
     28 C         139.7718  143.5848  164.6846 C.ar    1  UNL1        0.0208
     29 C         138.5821  144.4504  164.3926 C.ar    1  UNL1        0.0989
     30 N         137.6550  144.0962  163.2678 N.ar    1  UNL1       -0.2422
     31 C         137.9177  142.8765  162.4351 C.ar    1  UNL1        0.1019
@<TRIPOS>BOND
     1     2     3    1
     2     3     4   ar
     3     4     5   ar
     4     5     6   ar
     5     6     7   ar
     6     7     8   ar
     7     8     9   ar
     8     9    10   ar
     9    10    11   ar
    10     8    12    1
    11    12    13    1
    12    13    14    1
    13    14     1    1
    14     1    17    1
    15    17    18    1
    16    18    19    1
    17    19    20    1
    18    20    21   ar
    19    21    22   ar
    20    22    23   ar
    21    23    26    1
    22    26    27   ar
    23    27    28   ar
    24    28    29   ar
    25    29    30   ar
    26    30    31   ar
    27    23    24   ar
    28    24    25    1
    29    14    15    1
    30    15    16    1
    31    11     3   ar
    32    24    20   ar
    33    10     5   ar
    34    31    26   ar
    35    16     7    1
@<TRIPOS>MOLECULE
*****
 31 35 0 0 0
SMALL
GASTEIGER

@<TRIPOS>ATOM
      1 C         143.8957  138.0225  161.6270 C.3     1  UNL1        0.0730
      2 C         139.7364  142.9794  170.7591 C.3     1  UNL1        0.0950
      3 C         140.2938  142.3151  169.5352 C.ar    1  UNL1        0.2062
      4 N         139.7608  141.0720  168.8866 N.ar    1  UNL1       -0.2121
      5 C         140.6197  140.7659  167.6956 C.ar    1  UNL1        0.1182
      6 C         140.5705  139.6636  166.6794 C.ar    1  UNL1        0.0178
      7 C         141.5853  139.6152  165.5757 C.ar    1  UNL1       -0.0230
      8 C         142.6490  140.6690  165.4882 C.ar    1  UNL1       -0.0216
      9 C         142.6982  141.7713  166.5043 C.ar    1  UNL1        0.0346
     10 C         141.6835  141.8197  167.6081 C.ar    1  UNL1        0.1640
     11 O         141.4821  142.7772  168.7450 O.2     1  UNL1       -0.4384
     12 C         143.7482  140.8067  164.4768 C.3     1  UNL1        0.0434
     13 C         144.0549  139.9245  163.3030 C.3     1  UNL1        0.0768
     14 N         143.3383  138.6868  162.8509 N.3     1  UNL1       -0.2720
     15 C         142.1379  138.0255  163.4607 C.3     1  UNL1        0.0768
     16 C         141.3577  138.4387  164.6734 C.3     1  UNL1        0.0434
     17 C         143.6429  138.6136  160.2717 C.3     1  UNL1        0.0294
     18 C         142.6396  137.9815  159.3530 C.3     1  UNL1        0.0666
     19 S         141.3547  138.6909  159.0435 S.3     1  UNL1       -0.0756
     20 C         140.4772  139.1743  160.1599 C.ar    1  UNL1        0.1932
     21 N         139.5383  138.3318  160.9714 N.ar    1  UNL1       -0.1221
     22 N         138.8653  139.2219  161.9738 N.ar    1  UNL1       -0.1282
     23 C         139.3884  140.6146  161.7818 C.ar    1  UNL1        0.1683
     24 N         140.3846  140.5852  160.6607 N.ar    1  UNL1       -0.2884
     25 C         141.1532  141.7604  160.1332 C.3     1  UNL1        0.1340
     26 C         138.9859  141.8243  162.5721 C.ar    1  UNL1        0.0551
     27 C         139.4383  141.9757  163.9943 C.ar    1  UNL1        0.0062
     28 C         139.0358  143.1854  164.7846 C.ar    1  UNL1        0.0208
     29 C         138.1810  144.2438  164.1528 C.ar    1  UNL1        0.0989
     30 N         137.7286  144.0923  162.7307 N.ar    1  UNL1       -0.2422
     31 C         138.1311  142.8826  161.9404 C.ar    1  UNL1        0.1019
@<TRIPOS>BOND
     1     2     3    1
     2     3     4   ar
     3     4     5   ar
     4     5     6   ar
     5     6     7   ar
     6     7     8   ar
     7     8     9   ar
     8     9    10   ar
     9    10    11   ar
    10     8    12    1
    11    12    13    1
    12    13    14    1
    13    14     1    1
    14     1    17    1
    15    17    18    1
    16    18    19    1
    17    19    20    1
    18    20    21   ar
    19    21    22   ar
    20    22    23   ar
    21    23    26    1
    22    26    27   ar
    23    27    28   ar
    24    28    29   ar
    25    29    30   ar
    26    30    31   ar
    27    23    24   ar
    28    24    25    1
    29    14    15    1
    30    15    16    1
    31    11     3   ar
    32    24    20   ar
    33    10     5   ar
    34    31    26   ar
    35    16     7    1
@<TRIPOS>MOLECULE
*****
 31 35 0 0 0
SMALL
GASTEIGER

@<TRIPOS>ATOM
      1 C         138.8738  138.4633  160.4599 C.3     1  UNL1        0.0730
      2 C         142.9749  140.1900  170.7296 C.3     1  UNL1        0.0950
      3 C         142.4253  139.9586  169.3533 C.ar    1  UNL1        0.2062
      4 N         143.0744  139.1506  168.2689 N.ar    1  UNL1       -0.2121
      5 C         142.1803  139.1872  167.0651 C.ar    1  UNL1        0.1182
      6 C         142.3053  138.5714  165.7030 C.ar    1  UNL1        0.0178
      7 C         141.2283  138.7864  164.6812 C.ar    1  UNL1       -0.0230
      8 C         140.0266  139.6169  165.0215 C.ar    1  UNL1       -0.0216
      9 C         139.9016  140.2327  166.3835 C.ar    1  UNL1        0.0346
     10 C         140.9785  140.0178  167.4054 C.ar    1  UNL1        0.1640
     11 O         141.1299  140.4945  168.8195 O.2     1  UNL1       -0.4384
     12 C         138.8475  139.9539  164.1576 C.3     1  UNL1        0.0434
     13 C         138.5791  139.5434  162.7399 C.3     1  UNL1        0.0768
     14 N         139.4234  138.6947  161.8363 N.3     1  UNL1       -0.2720
     15 C         140.7447  138.0468  162.1268 C.3     1  UNL1        0.0768
     16 C         141.5479  138.0875  163.3930 C.3     1  UNL1        0.0434
     17 C         139.1029  139.4790  159.3801 C.3     1  UNL1        0.0294
     18 C         138.1079  140.5803  159.1628 C.3     1  UNL1        0.0666
     19 S         138.5422  142.0128  159.2570 S.3     1  UNL1       -0.0756
     20 C         139.0235  142.5661  160.5656 C.ar    1  UNL1        0.1932
     21 N         138.1748  143.2364  161.6050 N.ar    1  UNL1       -0.1221
     22 N         139.0648  143.6308  162.7463 N.ar    1  UNL1       -0.1282
     23 C         140.4635  143.2043  162.4121 C.ar    1  UNL1        0.1683
     24 N         140.4380  142.5463  161.0643 N.ar    1  UNL1       -0.2884
     25 C         141.6196  141.9698  160.3422 C.3     1  UNL1        0.1340
     26 C         141.6750  143.4013  163.2743 C.ar    1  UNL1        0.0551
     27 C         142.1622  142.2848  164.1496 C.ar    1  UNL1        0.0062
     28 C         143.3737  142.4818  165.0118 C.ar    1  UNL1        0.0208
     29 C         144.0981  143.7951  164.9987 C.ar    1  UNL1        0.0989
     30 N         143.6110  144.9116  164.1234 N.ar    1  UNL1       -0.2422
     31 C         142.3994  144.7147  163.2612 C.ar    1  UNL1        0.1019
@<TRIPOS>BOND
     1     2     3    1
     2     3     4   ar
     3     4     5   ar
     4     5     6   ar
     5     6     7   ar
     6     7     8   ar
     7     8     9   ar
     8     9    10   ar
     9    10    11   ar
    10     8    12    1
    11    12    13    1
    12    13    14    1
    13    14     1    1
    14     1    17    1
    15    17    18    1
    16    18    19    1
    17    19    20    1
    18    20    21   ar
    19    21    22   ar
    20    22    23   ar
    21    23    26    1
    22    26    27   ar
    23    27    28   ar
    24    28    29   ar
    25    29    30   ar
    26    30    31   ar
    27    23    24   ar
    28    24    25    1
    29    14    15    1
    30    15    16    1
    31    11     3   ar
    32    24    20   ar
    33    10     5   ar
    34    31    26   ar
    35    16     7    1
@<TRIPOS>MOLECULE
*****
 31 35 0 0 0
SMALL
GASTEIGER

@<TRIPOS>ATOM
      1 C         138.7009  139.1328  167.2718 C.3     1  UNL1        0.0730
      2 C         138.9268  139.8407  156.1042 C.3     1  UNL1        0.0950
      3 C         138.8965  139.7458  157.6009 C.ar    1  UNL1        0.2062
      4 N         139.3853  138.5889  158.4211 N.ar    1  UNL1       -0.2121
      5 C         139.1630  138.9193  159.8672 C.ar    1  UNL1        0.1182
      6 C         139.4499  138.1566  161.1266 C.ar    1  UNL1        0.0178
      7 C         139.1106  138.7550  162.4596 C.ar    1  UNL1       -0.0230
      8 C         138.4844  140.1159  162.5332 C.ar    1  UNL1       -0.0216
      9 C         138.1974  140.8787  161.2739 C.ar    1  UNL1        0.0346
     10 C         138.5368  140.2803  159.9409 C.ar    1  UNL1        0.1640
     11 O         138.3721  140.7911  158.5402 O.2     1  UNL1       -0.4384
     12 C         138.0702  140.8904  163.7493 C.3     1  UNL1        0.0434
     13 C         138.1801  140.4950  165.1921 C.3     1  UNL1        0.0768
     14 N         138.7311  139.2277  165.7751 N.3     1  UNL1       -0.2720
     15 C         139.3085  138.0426  165.0594 C.3     1  UNL1        0.0768
     16 C         139.4774  137.8322  163.5839 C.3     1  UNL1        0.0434
     17 C         139.2798  140.2375  168.1053 C.3     1  UNL1        0.0294
     18 C         140.4254  139.9565  169.0319 C.3     1  UNL1        0.0666
     19 S         141.8155  140.3744  168.6541 S.3     1  UNL1       -0.0756
     20 C         142.5143  139.7054  167.5078 C.ar    1  UNL1        0.1932
     21 N         143.3853  138.4873  167.5959 N.ar    1  UNL1       -0.1221
     22 N         143.8742  138.1661  166.2147 N.ar    1  UNL1       -0.1282
     23 C         143.3054  139.1856  165.2729 C.ar    1  UNL1        0.1683
     24 N         142.4649  140.1370  166.0721 N.ar    1  UNL1       -0.2884
     25 C         141.7080  141.3134  165.5306 C.3     1  UNL1        0.1340
     26 C         143.5364  139.2437  163.7920 C.ar    1  UNL1        0.0551
     27 C         142.9471  138.1922  162.8992 C.ar    1  UNL1        0.0062
     28 C         143.1781  138.2502  161.4182 C.ar    1  UNL1        0.0208
     29 C         143.9985  139.3597  160.8300 C.ar    1  UNL1        0.0989
     30 N         144.5878  140.4112  161.7228 N.ar    1  UNL1       -0.2422
     31 C         144.3568  140.3531  163.2037 C.ar    1  UNL1        0.1019
@<TRIPOS>BOND
     1     2     3    1
     2     3     4   ar
     3     4     5   ar
     4     5     6   ar
     5     6     7   ar
     6     7     8   ar
     7     8     9   ar
     8     9    10   ar
     9    10    11   ar
    10     8    12    1
    11    12    13    1
    12    13    14    1
    13    14     1    1
    14     1    17    1
    15    17    18    1
    16    18    19    1
    17    19    20    1
    18    20    21   ar
    19    21    22   ar
    20    22    23   ar
    21    23    26    1
    22    26    27   ar
    23    27    28   ar
    24    28    29   ar
    25    29    30   ar
    26    30    31   ar
    27    23    24   ar
    28    24    25    1
    29    14    15    1
    30    15    16    1
    31    11     3   ar
    32    24    20   ar
    33    10     5   ar
    34    31    26   ar
    35    16     7    1
@<TRIPOS>MOLECULE
*****
 31 35 0 0 0
SMALL
GASTEIGER

@<TRIPOS>ATOM
      1 C         144.2457  140.2675  160.6419 C.3     1  UNL1        0.0730
      2 C         141.5222  141.2968  171.4488 C.3     1  UNL1        0.0950
      3 C         141.8872  141.1589  170.0005 C.ar    1  UNL1        0.2062
      4 N         142.4123  139.9199  169.3376 N.ar    1  UNL1       -0.2121
      5 C         142.6408  140.2310  167.8882 C.ar    1  UNL1        0.1182
      6 C         143.1489  139.3959  166.7504 C.ar    1  UNL1        0.0178
      7 C         143.2730  139.9921  165.3795 C.ar    1  UNL1       -0.0230
      8 C         142.8891  141.4232  165.1465 C.ar    1  UNL1       -0.0216
      9 C         142.3811  142.2583  166.2842 C.ar    1  UNL1        0.0346
     10 C         142.2569  141.6622  167.6551 C.ar    1  UNL1        0.1640
     11 O         141.7911  142.2356  168.9606 O.2     1  UNL1       -0.4384
     12 C         142.9351  142.2077  163.8688 C.3     1  UNL1        0.0434
     13 C         143.3764  141.7547  162.5086 C.3     1  UNL1        0.0768
     14 N         143.8806  140.4055  162.0902 N.3     1  UNL1       -0.2720
     15 C         144.0682  139.1758  162.9286 C.3     1  UNL1        0.0768
     16 C         143.7977  138.9918  164.3925 C.3     1  UNL1        0.0434
     17 C         143.1774  140.3253  159.5903 C.3     1  UNL1        0.0294
     18 C         141.7320  140.3522  159.9902 C.3     1  UNL1        0.0666
     19 S         140.9792  139.0671  160.1685 S.3     1  UNL1       -0.0756
     20 C         140.7695  138.5053  161.5434 C.ar    1  UNL1        0.1932
     21 N         141.3820  137.2476  162.0847 N.ar    1  UNL1       -0.1221
     22 N         140.9016  137.0674  163.4943 N.ar    1  UNL1       -0.1282
     23 C         139.9922  138.2139  163.8241 C.ar    1  UNL1        0.1683
     24 N         139.9106  139.1025  162.6183 N.ar    1  UNL1       -0.2884
     25 C         139.1105  140.3664  162.5072 C.3     1  UNL1        0.1340
     26 C         139.2881  138.4332  165.1302 C.ar    1  UNL1        0.0551
     27 C         139.6354  139.6198  165.9795 C.ar    1  UNL1        0.0062
     28 C         138.9312  139.8391  167.2857 C.ar    1  UNL1        0.0208
     29 C         137.8798  138.8718  167.7426 C.ar    1  UNL1        0.0989
     30 N         137.5325  137.6852  166.8933 N.ar    1  UNL1       -0.2422
     31 C         138.2366  137.4659  165.5872 C.ar    1  UNL1        0.1019
@<TRIPOS>BOND
     1     2     3    1
     2     3     4   ar
     3     4     5   ar
     4     5     6   ar
     5     6     7   ar
     6     7     8   ar
     7     8     9   ar
     8     9    10   ar
     9    10    11   ar
    10     8    12    1
    11    12    13    1
    12    13    14    1
    13    14     1    1
    14     1    17    1
    15    17    18    1
    16    18    19    1
    17    19    20    1
    18    20    21   ar
    19    21    22   ar
    20    22    23   ar
    21    23    26    1
    22    26    27   ar
    23    27    28   ar
    24    28    29   ar
    25    29    30   ar
    26    30    31   ar
    27    23    24   ar
    28    24    25    1
    29    14    15    1
    30    15    16    1
    31    11     3   ar
    32    24    20   ar
    33    10     5   ar
    34    31    26   ar
    35    16     7    1
@<TRIPOS>MOLECULE
*****
 31 35 0 0 0
SMALL
GASTEIGER

@<TRIPOS>ATOM
      1 C         138.2125  142.6863  160.6370 C.3     1  UNL1        0.0730
      2 C         140.9053  140.5432  171.2870 C.3     1  UNL1        0.0950
      3 C         140.5444  140.8304  169.8597 C.ar    1  UNL1        0.2062
      4 N         139.8186  139.9035  168.9301 N.ar    1  UNL1       -0.2121
      5 C         139.6716  140.5952  167.6073 C.ar    1  UNL1        0.1182
      6 C         139.0416  140.1668  166.3151 C.ar    1  UNL1        0.0178
      7 C         139.0465  141.0928  165.1350 C.ar    1  UNL1       -0.0230
      8 C         139.6814  142.4470  165.2471 C.ar    1  UNL1       -0.0216
      9 C         140.3114  142.8756  166.5391 C.ar    1  UNL1        0.0346
     10 C         140.3065  141.9497  167.7193 C.ar    1  UNL1        0.1640
     11 O         140.8459  142.0950  169.1114 O.2     1  UNL1       -0.4384
     12 C         139.7951  143.5161  164.2010 C.3     1  UNL1        0.0434
     13 C         139.3020  143.4947  162.7844 C.3     1  UNL1        0.0768
     14 N         138.5734  142.3991  162.0643 N.3     1  UNL1       -0.2720
     15 C         138.1580  141.0542  162.5826 C.3     1  UNL1        0.0768
     16 C         138.3685  140.4728  163.9492 C.3     1  UNL1        0.0434
     17 C         139.2248  142.4753  159.5503 C.3     1  UNL1        0.0294
     18 C         140.0567  143.6259  159.0664 C.3     1  UNL1        0.0666
     19 S         141.5488  143.5872  159.2147 S.3     1  UNL1       -0.0756
     20 C         142.1625  143.3362  160.5602 C.ar    1  UNL1        0.1932
     21 N         142.6255  144.3849  161.5276 N.ar    1  UNL1       -0.1221
     22 N         143.1701  143.6893  162.7398 N.ar    1  UNL1       -0.1282
     23 C         143.0437  142.2107  162.5217 C.ar    1  UNL1        0.1683
     24 N         142.4209  141.9924  161.1746 N.ar    1  UNL1       -0.2884
     25 C         142.1111  140.6636  160.5514 C.3     1  UNL1        0.1340
     26 C         143.4659  141.1385  163.4820 C.ar    1  UNL1        0.0551
     27 C         142.6485  140.8674  164.7101 C.ar    1  UNL1        0.0062
     28 C         143.0707  139.7952  165.6704 C.ar    1  UNL1        0.0208
     29 C         144.3102  138.9941  165.4027 C.ar    1  UNL1        0.0989
     30 N         145.1276  139.2652  164.1745 N.ar    1  UNL1       -0.2422
     31 C         144.7054  140.3374  163.2142 C.ar    1  UNL1        0.1019
@<TRIPOS>BOND
     1     2     3    1
     2     3     4   ar
     3     4     5   ar
     4     5     6   ar
     5     6     7   ar
     6     7     8   ar
     7     8     9   ar
     8     9    10   ar
     9    10    11   ar
    10     8    12    1
    11    12    13    1
    12    13    14    1
    13    14     1    1
    14     1    17    1
    15    17    18    1
    16    18    19    1
    17    19    20    1
    18    20    21   ar
    19    21    22   ar
    20    22    23   ar
    21    23    26    1
    22    26    27   ar
    23    27    28   ar
    24    28    29   ar
    25    29    30   ar
    26    30    31   ar
    27    23    24   ar
    28    24    25    1
    29    14    15    1
    30    15    16    1
    31    11     3   ar
    32    24    20   ar
    33    10     5   ar
    34    31    26   ar
    35    16     7    1
@<TRIPOS>MOLECULE
*****
 31 35 0 0 0
SMALL
GASTEIGER

@<TRIPOS>ATOM
      1 C         144.4255  142.8284  160.8323 C.3     1  UNL1        0.0730
      2 C         140.0410  139.9032  170.7059 C.3     1  UNL1        0.0950
      3 C         140.6286  140.2953  169.3826 C.ar    1  UNL1        0.2062
      4 N         140.0823  141.3338  168.4481 N.ar    1  UNL1       -0.2121
      5 C         140.9817  141.3979  167.2495 C.ar    1  UNL1        0.1182
      6 C         140.9395  142.2369  166.0067 C.ar    1  UNL1        0.0178
      7 C         141.9996  142.0770  164.9575 C.ar    1  UNL1       -0.0230
      8 C         143.1017  141.0783  165.1511 C.ar    1  UNL1       -0.0216
      9 C         143.1440  140.2393  166.3938 C.ar    1  UNL1        0.0346
     10 C         142.0840  140.3992  167.4431 C.ar    1  UNL1        0.1640
     11 O         141.8658  139.7177  168.7614 O.2     1  UNL1       -0.4384
     12 C         144.2485  140.7620  164.2372 C.3     1  UNL1        0.0434
     13 C         144.5760  141.3665  162.9040 C.3     1  UNL1        0.0768
     14 N         143.8379  142.4364  162.1556 N.3     1  UNL1       -0.2720
     15 C         142.5898  143.1662  162.5553 C.3     1  UNL1        0.0768
     16 C         141.7717  143.0062  163.8023 C.3     1  UNL1        0.0434
     17 C         143.6397  142.6207  159.5715 C.3     1  UNL1        0.0294
     18 C         144.1695  141.7172  158.4977 C.3     1  UNL1        0.0666
     19 S         143.6609  140.3109  158.3823 S.3     1  UNL1       -0.0756
     20 C         143.3340  139.5277  159.6192 C.ar    1  UNL1        0.1932
     21 N         144.2650  138.6078  160.3520 N.ar    1  UNL1       -0.1221
     22 N         143.5252  138.0385  161.5261 N.ar    1  UNL1       -0.1282
     23 C         142.1369  138.6066  161.5190 C.ar    1  UNL1        0.1683
     24 N         142.0188  139.5271  160.3404 N.ar    1  UNL1       -0.2884
     25 C         140.7995  140.3094  159.9515 C.3     1  UNL1        0.1340
     26 C         141.0565  138.3070  162.5154 C.ar    1  UNL1        0.0551
     27 C         141.3405  138.4135  163.9844 C.ar    1  UNL1        0.0062
     28 C         140.2601  138.1138  164.9809 C.ar    1  UNL1        0.0208
     29 C         138.8957  137.7076  164.5084 C.ar    1  UNL1        0.0989
     30 N         138.6117  137.6011  163.0394 N.ar    1  UNL1       -0.2422
     31 C         139.6921  137.9008  162.0429 C.ar    1  UNL1        0.1019
@<TRIPOS>BOND
     1     2     3    1
     2     3     4   ar
     3     4     5   ar
     4     5     6   ar
     5     6     7   ar
     6     7     8   ar
     7     8     9   ar
     8     9    10   ar
     9    10    11   ar
    10     8    12    1
    11    12    13    1
    12    13    14    1
    13    14     1    1
    14     1    17    1
    15    17    18    1
    16    18    19    1
    17    19    20    1
    18    20    21   ar
    19    21    22   ar
    20    22    23   ar
    21    23    26    1
    22    26    27   ar
    23    27    28   ar
    24    28    29   ar
    25    29    30   ar
    26    30    31   ar
    27    23    24   ar
    28    24    25    1
    29    14    15    1
    30    15    16    1
    31    11     3   ar
    32    24    20   ar
    33    10     5   ar
    34    31    26   ar
    35    16     7    1
