@<TRIPOS>MOLECULE
*****
 30 34 0 0 0
SMALL
GASTEIGER

@<TRIPOS>ATOM
      1 N         143.7617  142.3608  165.4099 N.pl3   1  UNL1       -0.3133
      2 C         142.9774  142.0703  166.6552 C.2     1  UNL1        0.2770
      3 N         141.7234  141.2513  166.7363 N.2     1  UNL1       -0.2204
      4 C         141.2805  141.2227  168.1692 C.3     1  UNL1        0.1537
      5 C         142.2608  142.0240  168.9735 C.3     1  UNL1        0.2350
      6 O         143.3095  142.5478  168.0378 O.2     1  UNL1       -0.4478
      7 C         140.3875  140.4562  167.2390 C.ar    1  UNL1        0.0367
      8 C         140.7052  140.3956  165.7743 C.ar    1  UNL1        0.0153
      9 C         139.8122  139.6291  164.8442 C.ar    1  UNL1        0.0505
     10 C         138.6016  138.9231  165.3788 C.ar    1  UNL1        0.0178
     11 C         138.2839  138.9837  166.8436 C.ar    1  UNL1        0.0379
     12 C         139.1768  139.7502  167.7737 C.ar    1  UNL1        0.1364
     13 O         138.8591  139.8107  169.2384 O.3     1  UNL1       -0.4756
     14 C         139.7521  140.5772  170.1685 C.3     1  UNL1        0.2074
     15 C         140.9628  141.2832  169.6339 C.3     1  UNL1        0.0666
     16 C         142.1773  142.1333  169.8622 C.3     1  UNL1        0.0061
     17 C         141.2949  141.7607  171.0165 C.3     1  UNL1        0.0061
     18 H         143.4619  142.0007  164.5441 H       1  UNL1        0.1466
     19 H         144.5763  142.9116  165.4585 H       1  UNL1        0.1466
     20 N         140.1300  139.5686  163.3795 N.am    1  UNL1       -0.2791
     21 C         140.7678  138.3406  162.8005 C.2     1  UNL1        0.2672
     22 O         141.0878  137.1731  163.6862 O.2     1  UNL1       -0.2682
     23 H         139.9199  140.3348  162.7982 H       1  UNL1        0.1552
     24 C         141.0855  138.2800  161.3359 C.ar    1  UNL1        0.1349
     25 C         142.4580  137.8796  160.8821 C.ar    1  UNL1        0.0261
     26 C         142.7757  137.8191  159.4173 C.ar    1  UNL1        0.0329
     27 C         141.7209  138.1590  158.4064 C.ar    1  UNL1        0.1592
     28 F         142.0387  138.0985  156.9417 F       1  UNL1       -0.2025
     29 C         140.3485  138.5595  158.8602 C.ar    1  UNL1        0.1285
     30 N         140.0307  138.6200  160.3249 N.ar    1  UNL1       -0.2369
@<TRIPOS>BOND
     1     1     2    1
     2     2     3    2
     3     3     4    1
     4     4     5    1
     5     5     6    1
     6     4     7    1
     7     7     8   ar
     8     8     9   ar
     9     9    20    1
    10    20    21   am
    11    21    22    2
    12    21    24    1
    13    24    25   ar
    14    25    26   ar
    15    26    27   ar
    16    27    28    1
    17    27    29   ar
    18    29    30   ar
    19     9    10   ar
    20    10    11   ar
    21    11    12   ar
    22    12    13    1
    23    13    14    1
    24    14    15    1
    25    15    16    1
    26    16    17    1
    27     6     2    1
    28    12     7   ar
    29    17    15    1
    30    15     4    1
    31    30    24   ar
    32     1    18    1
    33     1    19    1
    34    20    23    1
@<TRIPOS>MOLECULE
*****
 30 34 0 0 0
SMALL
GASTEIGER

@<TRIPOS>ATOM
      1 N         144.0990  145.0365  162.5541 N.pl3   1  UNL1       -0.3133
      2 C         142.6445  144.7857  162.8217 C.2     1  UNL1        0.2770
      3 N         141.6610  144.1894  161.8589 N.2     1  UNL1       -0.2204
      4 C         140.3268  144.1223  162.5413 C.3     1  UNL1        0.1537
      5 C         140.4859  144.6771  163.9258 C.3     1  UNL1        0.2350
      6 O         141.9182  145.0871  164.0991 O.2     1  UNL1       -0.4478
      7 C         140.3207  143.5967  161.1363 C.ar    1  UNL1        0.0367
      8 C         141.5847  143.6002  160.3287 C.ar    1  UNL1        0.0153
      9 C         141.5786  143.0747  158.9238 C.ar    1  UNL1        0.0505
     10 C         140.3085  142.5456  158.3265 C.ar    1  UNL1        0.0178
     11 C         139.0444  142.5421  159.1341 C.ar    1  UNL1        0.0379
     12 C         139.0505  143.0677  160.5390 C.ar    1  UNL1        0.1364
     13 O         137.7865  143.0642  161.3466 O.3     1  UNL1       -0.4756
     14 C         137.7926  143.5897  162.7515 C.3     1  UNL1        0.2074
     15 C         139.0628  144.1188  163.3488 C.3     1  UNL1        0.0666
     16 C         139.7996  144.7276  164.5048 C.3     1  UNL1        0.0061
     17 C         138.3365  144.4202  164.6262 C.3     1  UNL1        0.0061
     18 H         144.4859  144.8035  161.6794 H       1  UNL1        0.1466
     19 H         144.6667  145.4342  163.2533 H       1  UNL1        0.1466
     20 N         142.8426  143.0782  158.1162 N.am    1  UNL1       -0.2791
     21 C         143.7862  141.9148  158.1949 C.2     1  UNL1        0.2672
     22 O         143.4657  140.7478  159.0812 O.2     1  UNL1       -0.2682
     23 H         143.0530  143.8441  157.5345 H       1  UNL1        0.1552
     24 C         145.0502  141.9183  157.3874 C.ar    1  UNL1        0.1349
     25 C         145.1471  141.0873  156.1423 C.ar    1  UNL1        0.0261
     26 C         146.4112  141.0909  155.3347 C.ar    1  UNL1        0.0329
     27 C         147.5783  141.9253  155.7722 C.ar    1  UNL1        0.1592
     28 F         148.8423  141.9288  154.9647 F       1  UNL1       -0.2025
     29 C         147.4814  142.7562  157.0173 C.ar    1  UNL1        0.1285
     30 N         146.2174  142.7527  157.8248 N.ar    1  UNL1       -0.2369
@<TRIPOS>BOND
     1     1     2    1
     2     2     3    2
     3     3     4    1
     4     4     5    1
     5     5     6    1
     6     4     7    1
     7     7     8   ar
     8     8     9   ar
     9     9    20    1
    10    20    21   am
    11    21    22    2
    12    21    24    1
    13    24    25   ar
    14    25    26   ar
    15    26    27   ar
    16    27    28    1
    17    27    29   ar
    18    29    30   ar
    19     9    10   ar
    20    10    11   ar
    21    11    12   ar
    22    12    13    1
    23    13    14    1
    24    14    15    1
    25    15    16    1
    26    16    17    1
    27     6     2    1
    28    12     7   ar
    29    17    15    1
    30    15     4    1
    31    30    24   ar
    32     1    18    1
    33     1    19    1
    34    20    23    1
@<TRIPOS>MOLECULE
*****
 30 34 0 0 0
SMALL
GASTEIGER

@<TRIPOS>ATOM
      1 N         139.4492  145.2989  163.7721 N.pl3   1  UNL1       -0.3133
      2 C         140.0092  145.1512  162.3884 C.2     1  UNL1        0.2770
      3 N         141.2541  144.4017  162.0165 N.2     1  UNL1       -0.2204
      4 C         141.4369  144.5144  160.5319 C.3     1  UNL1        0.1537
      5 C         140.3049  145.3335  159.9864 C.3     1  UNL1        0.2350
      6 O         139.4226  145.7271  161.1337 O.2     1  UNL1       -0.4478
      7 C         142.5042  143.7152  161.2191 C.ar    1  UNL1        0.0367
      8 C         142.4530  143.5169  162.7051 C.ar    1  UNL1        0.0153
      9 C         143.5203  142.7177  163.3923 C.ar    1  UNL1        0.0505
     10 C         144.6387  142.1167  162.5935 C.ar    1  UNL1        0.0178
     11 C         144.6898  142.3150  161.1075 C.ar    1  UNL1        0.0379
     12 C         143.6226  143.1142  160.4204 C.ar    1  UNL1        0.1364
     13 O         143.6737  143.3125  158.9343 O.3     1  UNL1       -0.4756
     14 C         142.6064  144.1116  158.2472 C.3     1  UNL1        0.2074
     15 C         141.4880  144.7126  159.0460 C.3     1  UNL1        0.0666
     16 C         140.2262  145.5210  159.1104 C.3     1  UNL1        0.0061
     17 C         140.9014  145.2885  157.7913 C.3     1  UNL1        0.0061
     18 H         139.9089  144.8818  164.5363 H       1  UNL1        0.1466
     19 H         138.6220  145.8130  163.9161 H       1  UNL1        0.1466
     20 N         143.4692  142.5195  164.8782 N.am    1  UNL1       -0.2791
     21 C         142.8338  141.2863  165.4490 C.2     1  UNL1        0.2672
     22 O         142.2496  140.2514  164.5338 O.2     1  UNL1       -0.2682
     23 H         143.8526  143.1987  165.4789 H       1  UNL1        0.1552
     24 C         142.7827  141.0881  166.9349 C.ar    1  UNL1        0.1349
     25 C         143.1376  142.2184  167.8550 C.ar    1  UNL1        0.0261
     26 C         143.0864  142.0201  169.3410 C.ar    1  UNL1        0.0329
     27 C         142.6804  140.6916  169.9068 C.ar    1  UNL1        0.1592
     28 F         142.6292  140.4934  171.3928 F       1  UNL1       -0.2025
     29 C         142.3254  139.5614  168.9867 C.ar    1  UNL1        0.1285
     30 N         142.3766  139.7596  167.5008 N.ar    1  UNL1       -0.2369
@<TRIPOS>BOND
     1     1     2    1
     2     2     3    2
     3     3     4    1
     4     4     5    1
     5     5     6    1
     6     4     7    1
     7     7     8   ar
     8     8     9   ar
     9     9    20    1
    10    20    21   am
    11    21    22    2
    12    21    24    1
    13    24    25   ar
    14    25    26   ar
    15    26    27   ar
    16    27    28    1
    17    27    29   ar
    18    29    30   ar
    19     9    10   ar
    20    10    11   ar
    21    11    12   ar
    22    12    13    1
    23    13    14    1
    24    14    15    1
    25    15    16    1
    26    16    17    1
    27     6     2    1
    28    12     7   ar
    29    17    15    1
    30    15     4    1
    31    30    24   ar
    32     1    18    1
    33     1    19    1
    34    20    23    1
@<TRIPOS>MOLECULE
*****
 30 34 0 0 0
SMALL
GASTEIGER

@<TRIPOS>ATOM
      1 N         143.3070  142.9377  164.7794 N.pl3   1  UNL1       -0.3133
      2 C         142.8456  142.4626  166.1253 C.2     1  UNL1        0.2770
      3 N         141.6502  141.5968  166.3925 N.2     1  UNL1       -0.2204
      4 C         141.5645  141.3690  167.8727 C.3     1  UNL1        0.1537
      5 C         142.7069  142.0940  168.5201 C.3     1  UNL1        0.2350
      6 O         143.4987  142.7698  167.4403 O.2     1  UNL1       -0.4478
      7 C         140.4765  140.6977  167.0880 C.ar    1  UNL1        0.0367
      8 C         140.4333  140.8368  165.5951 C.ar    1  UNL1        0.0153
      9 C         139.3454  140.1655  164.8104 C.ar    1  UNL1        0.0505
     10 C         138.3006  139.3550  165.5186 C.ar    1  UNL1        0.0178
     11 C         138.3438  139.2159  167.0116 C.ar    1  UNL1        0.0379
     12 C         139.4318  139.8872  167.7962 C.ar    1  UNL1        0.1364
     13 O         139.4750  139.7480  169.2892 O.3     1  UNL1       -0.4756
     14 C         140.5629  140.4194  170.0738 C.3     1  UNL1        0.2074
     15 C         141.6077  141.2299  169.3655 C.3     1  UNL1        0.0666
     16 C         142.8390  142.0854  169.4097 C.3     1  UNL1        0.0061
     17 C         142.2607  141.5371  170.6805 C.3     1  UNL1        0.0061
     18 H         142.8091  142.6815  163.9696 H       1  UNL1        0.1466
     19 H         144.1078  143.5057  164.7058 H       1  UNL1        0.1466
     20 N         139.3022  140.3046  163.3175 N.am    1  UNL1       -0.2791
     21 C         138.3409  141.2644  162.6812 C.2     1  UNL1        0.2672
     22 O         137.4229  142.0850  163.5378 O.2     1  UNL1       -0.2682
     23 H         139.9047  139.7661  162.7553 H       1  UNL1        0.1552
     24 C         138.2978  141.4036  161.1883 C.ar    1  UNL1        0.1349
     25 C         137.9308  140.2254  160.3355 C.ar    1  UNL1        0.0261
     26 C         137.8876  140.3646  158.8426 C.ar    1  UNL1        0.0329
     27 C         138.2114  141.6820  158.2025 C.ar    1  UNL1        0.1592
     28 F         138.1682  141.8211  156.7096 F       1  UNL1       -0.2025
     29 C         138.5784  142.8601  159.0553 C.ar    1  UNL1        0.1285
     30 N         138.6216  142.7210  160.5482 N.ar    1  UNL1       -0.2369
@<TRIPOS>BOND
     1     1     2    1
     2     2     3    2
     3     3     4    1
     4     4     5    1
     5     5     6    1
     6     4     7    1
     7     7     8   ar
     8     8     9   ar
     9     9    20    1
    10    20    21   am
    11    21    22    2
    12    21    24    1
    13    24    25   ar
    14    25    26   ar
    15    26    27   ar
    16    27    28    1
    17    27    29   ar
    18    29    30   ar
    19     9    10   ar
    20    10    11   ar
    21    11    12   ar
    22    12    13    1
    23    13    14    1
    24    14    15    1
    25    15    16    1
    26    16    17    1
    27     6     2    1
    28    12     7   ar
    29    17    15    1
    30    15     4    1
    31    30    24   ar
    32     1    18    1
    33     1    19    1
    34    20    23    1
@<TRIPOS>MOLECULE
*****
 30 34 0 0 0
SMALL
GASTEIGER

@<TRIPOS>ATOM
      1 N         137.8611  142.6714  162.5731 N.pl3   1  UNL1       -0.3133
      2 C         138.7280  142.3067  163.7417 C.2     1  UNL1        0.2770
      3 N         140.1537  142.7255  163.9464 N.2     1  UNL1       -0.2204
      4 C         140.6282  142.1368  165.2420 C.3     1  UNL1        0.1537
      5 C         139.4957  141.3542  165.8378 C.3     1  UNL1        0.2350
      6 O         138.3214  141.4592  164.9106 O.2     1  UNL1       -0.4478
      7 C         141.6638  142.9533  164.5272 C.ar    1  UNL1        0.0367
      8 C         141.3325  143.6048  163.2174 C.ar    1  UNL1        0.0153
      9 C         142.3681  144.4213  162.5026 C.ar    1  UNL1        0.0505
     10 C         143.7351  144.5863  163.0977 C.ar    1  UNL1        0.0178
     11 C         144.0664  143.9347  164.4077 C.ar    1  UNL1        0.0379
     12 C         143.0308  143.1183  165.1224 C.ar    1  UNL1        0.1364
     13 O         143.3621  142.4668  166.4323 O.3     1  UNL1       -0.4756
     14 C         142.3264  141.6503  167.1470 C.3     1  UNL1        0.2074
     15 C         140.9595  141.4854  166.5519 C.3     1  UNL1        0.0666
     16 C         139.5724  140.9187  166.6209 C.3     1  UNL1        0.0061
     17 C         140.5528  140.6378  167.7208 C.3     1  UNL1        0.0061
     18 H         138.2203  143.2359  161.8509 H       1  UNL1        0.1466
     19 H         136.9329  142.3462  162.5283 H       1  UNL1        0.1466
     20 N         142.0368  145.0727  161.1927 N.am    1  UNL1       -0.2791
     21 C         141.8509  144.2335  159.9635 C.2     1  UNL1        0.2672
     22 O         141.9963  142.7427  160.0441 O.2     1  UNL1       -0.2682
     23 H         141.9414  146.0512  161.1398 H       1  UNL1        0.1552
     24 C         141.5196  144.8849  158.6536 C.ar    1  UNL1        0.1349
     25 C         142.4267  144.7000  157.4734 C.ar    1  UNL1        0.0261
     26 C         142.0953  145.3516  156.1634 C.ar    1  UNL1        0.0329
     27 C         140.8569  146.1879  156.0338 C.ar    1  UNL1        0.1592
     28 F         140.5255  146.8393  154.7240 F       1  UNL1       -0.2025
     29 C         139.9498  146.3728  157.2141 C.ar    1  UNL1        0.1285
     30 N         140.2811  145.7213  158.5240 N.ar    1  UNL1       -0.2369
@<TRIPOS>BOND
     1     1     2    1
     2     2     3    2
     3     3     4    1
     4     4     5    1
     5     5     6    1
     6     4     7    1
     7     7     8   ar
     8     8     9   ar
     9     9    20    1
    10    20    21   am
    11    21    22    2
    12    21    24    1
    13    24    25   ar
    14    25    26   ar
    15    26    27   ar
    16    27    28    1
    17    27    29   ar
    18    29    30   ar
    19     9    10   ar
    20    10    11   ar
    21    11    12   ar
    22    12    13    1
    23    13    14    1
    24    14    15    1
    25    15    16    1
    26    16    17    1
    27     6     2    1
    28    12     7   ar
    29    17    15    1
    30    15     4    1
    31    30    24   ar
    32     1    18    1
    33     1    19    1
    34    20    23    1
@<TRIPOS>MOLECULE
*****
 30 34 0 0 0
SMALL
GASTEIGER

@<TRIPOS>ATOM
      1 N         144.7080  139.1207  162.7859 N.pl3   1  UNL1       -0.3133
      2 C         143.8142  138.9378  161.5951 C.2     1  UNL1        0.2770
      3 N         142.3267  138.7485  161.6301 N.2     1  UNL1       -0.2204
      4 C         141.8443  138.6059  160.2169 C.3     1  UNL1        0.1537
      5 C         143.0337  138.7071  159.3087 C.3     1  UNL1        0.2350
      6 O         144.2512  138.9122  160.1604 O.2     1  UNL1       -0.4478
      7 C         140.7547  138.5244  161.2448 C.ar    1  UNL1        0.0367
      8 C         141.0874  138.6502  162.7019 C.ar    1  UNL1        0.0153
      9 C         139.9979  138.5687  163.7298 C.ar    1  UNL1        0.0505
     10 C         138.5757  138.3613  163.3003 C.ar    1  UNL1        0.0178
     11 C         138.2431  138.2354  161.8430 C.ar    1  UNL1        0.0379
     12 C         139.3326  138.3170  160.8153 C.ar    1  UNL1        0.1364
     13 O         138.9999  138.1911  159.3580 O.3     1  UNL1       -0.4756
     14 C         140.0894  138.2726  158.3303 C.3     1  UNL1        0.2074
     15 C         141.5116  138.4800  158.7597 C.3     1  UNL1        0.0666
     16 C         142.9617  138.6468  158.4143 C.3     1  UNL1        0.0061
     17 C         141.9486  138.4544  157.3250 C.3     1  UNL1        0.0061
     18 H         144.3252  139.1232  163.6929 H       1  UNL1        0.1466
     19 H         145.6773  139.2382  162.6604 H       1  UNL1        0.1466
     20 N         140.3305  138.6946  165.1870 N.am    1  UNL1       -0.2791
     21 C         140.4549  140.0518  165.8134 C.2     1  UNL1        0.2672
     22 O         140.2466  141.2832  164.9826 O.2     1  UNL1       -0.2682
     23 H         140.4673  137.8863  165.7322 H       1  UNL1        0.1552
     24 C         140.7875  140.1777  167.2706 C.ar    1  UNL1        0.1349
     25 C         139.6918  140.1550  168.2947 C.ar    1  UNL1        0.0261
     26 C         140.0245  140.2809  169.7520 C.ar    1  UNL1        0.0329
     27 C         141.4529  140.4294  170.1850 C.ar    1  UNL1        0.1592
     28 F         141.7856  140.5553  171.6422 F       1  UNL1       -0.2025
     29 C         142.5487  140.4521  169.1609 C.ar    1  UNL1        0.1285
     30 N         142.2160  140.3262  167.7037 N.ar    1  UNL1       -0.2369
@<TRIPOS>BOND
     1     1     2    1
     2     2     3    2
     3     3     4    1
     4     4     5    1
     5     5     6    1
     6     4     7    1
     7     7     8   ar
     8     8     9   ar
     9     9    20    1
    10    20    21   am
    11    21    22    2
    12    21    24    1
    13    24    25   ar
    14    25    26   ar
    15    26    27   ar
    16    27    28    1
    17    27    29   ar
    18    29    30   ar
    19     9    10   ar
    20    10    11   ar
    21    11    12   ar
    22    12    13    1
    23    13    14    1
    24    14    15    1
    25    15    16    1
    26    16    17    1
    27     6     2    1
    28    12     7   ar
    29    17    15    1
    30    15     4    1
    31    30    24   ar
    32     1    18    1
    33     1    19    1
    34    20    23    1
@<TRIPOS>MOLECULE
*****
 30 34 0 0 0
SMALL
GASTEIGER

@<TRIPOS>ATOM
      1 N         138.2666  138.8388  166.0771 N.pl3   1  UNL1       -0.3133
      2 C         139.0649  139.5497  167.1294 C.2     1  UNL1        0.2770
      3 N         140.2965  140.3733  166.8954 N.2     1  UNL1       -0.2204
      4 C         140.7644  140.8945  168.2219 C.3     1  UNL1        0.1537
      5 C         139.8220  140.3929  169.2756 C.3     1  UNL1        0.2350
      6 O         138.7717  139.5618  168.6004 O.2     1  UNL1       -0.4478
      7 C         141.6182  141.3190  167.0640 C.ar    1  UNL1        0.0367
      8 C         141.2723  140.8736  165.6741 C.ar    1  UNL1        0.0153
      9 C         142.1261  141.2981  164.5161 C.ar    1  UNL1        0.0505
     10 C         143.3258  142.1681  164.7481 C.ar    1  UNL1        0.0178
     11 C         143.6717  142.6135  166.1381 C.ar    1  UNL1        0.0379
     12 C         142.8180  142.1890  167.2960 C.ar    1  UNL1        0.1364
     13 O         143.1639  142.6344  168.6859 O.3     1  UNL1       -0.4756
     14 C         142.3101  142.2099  169.8438 C.3     1  UNL1        0.2074
     15 C         141.1104  141.3399  169.6118 C.3     1  UNL1        0.0666
     16 C         139.9248  140.5925  170.1464 C.3     1  UNL1        0.0061
     17 C         140.8172  141.3520  171.0829 C.3     1  UNL1        0.0061
     18 H         138.5403  138.8906  165.1328 H       1  UNL1        0.1466
     19 H         137.4690  138.3204  166.3307 H       1  UNL1        0.1466
     20 N         141.7802  140.8527  163.1262 N.am    1  UNL1       -0.2791
     21 C         142.3288  139.5621  162.5938 C.2     1  UNL1        0.2672
     22 O         143.2234  138.7170  163.4513 O.2     1  UNL1       -0.2682
     23 H         141.1930  141.4073  162.5633 H       1  UNL1        0.1552
     24 C         141.9829  139.1167  161.2039 C.ar    1  UNL1        0.1349
     25 C         143.0608  138.6255  160.2836 C.ar    1  UNL1        0.0261
     26 C         142.7148  138.1800  158.8936 C.ar    1  UNL1        0.0329
     27 C         141.2910  138.2258  158.4240 C.ar    1  UNL1        0.1592
     28 F         140.9450  137.7803  157.0341 F       1  UNL1       -0.2025
     29 C         140.2131  138.7169  159.3443 C.ar    1  UNL1        0.1285
     30 N         140.5590  139.1624  160.7342 N.ar    1  UNL1       -0.2369
@<TRIPOS>BOND
     1     1     2    1
     2     2     3    2
     3     3     4    1
     4     4     5    1
     5     5     6    1
     6     4     7    1
     7     7     8   ar
     8     8     9   ar
     9     9    20    1
    10    20    21   am
    11    21    22    2
    12    21    24    1
    13    24    25   ar
    14    25    26   ar
    15    26    27   ar
    16    27    28    1
    17    27    29   ar
    18    29    30   ar
    19     9    10   ar
    20    10    11   ar
    21    11    12   ar
    22    12    13    1
    23    13    14    1
    24    14    15    1
    25    15    16    1
    26    16    17    1
    27     6     2    1
    28    12     7   ar
    29    17    15    1
    30    15     4    1
    31    30    24   ar
    32     1    18    1
    33     1    19    1
    34    20    23    1
@<TRIPOS>MOLECULE
*****
 30 34 0 0 0
SMALL
GASTEIGER

@<TRIPOS>ATOM
      1 N         143.6390  139.2006  163.4521 N.pl3   1  UNL1       -0.3133
      2 C         143.1642  139.4788  164.8476 C.2     1  UNL1        0.2770
      3 N         142.2389  140.5850  165.2599 N.2     1  UNL1       -0.2204
      4 C         142.0342  140.4894  166.7429 C.3     1  UNL1        0.1537
      5 C         142.8331  139.3242  167.2469 C.3     1  UNL1        0.2350
      6 O         143.5314  138.6996  166.0757 O.2     1  UNL1       -0.4478
      7 C         141.2894  141.6192  166.0956 C.ar    1  UNL1        0.0367
      8 C         141.3982  141.8390  164.6158 C.ar    1  UNL1        0.0153
      9 C         140.6533  142.9688  163.9686 C.ar    1  UNL1        0.0505
     10 C         139.7997  143.8787  164.8012 C.ar    1  UNL1        0.0178
     11 C         139.6909  143.6589  166.2811 C.ar    1  UNL1        0.0379
     12 C         140.4357  142.5292  166.9282 C.ar    1  UNL1        0.1364
     13 O         140.3269  142.3093  168.4081 O.3     1  UNL1       -0.4756
     14 C         141.0718  141.1796  169.0553 C.3     1  UNL1        0.2074
     15 C         141.9254  140.2697  168.2227 C.3     1  UNL1        0.0666
     16 C         142.8483  139.0921  168.1156 C.3     1  UNL1        0.0061
     17 C         142.2926  139.4905  169.4507 C.3     1  UNL1        0.0061
     18 H         143.3408  139.7716  162.7077 H       1  UNL1        0.1466
     19 H         144.2489  138.4470  163.2808 H       1  UNL1        0.1466
     20 N         140.7622  143.1886  162.4888 N.am    1  UNL1       -0.2791
     21 C         141.7905  144.1355  161.9448 C.2     1  UNL1        0.2672
     22 O         142.7100  144.8626  162.8806 O.2     1  UNL1       -0.2682
     23 H         140.1586  142.7113  161.8746 H       1  UNL1        0.1552
     24 C         141.8993  144.3552  160.4650 C.ar    1  UNL1        0.1349
     25 C         140.9614  145.3019  159.7764 C.ar    1  UNL1        0.0261
     26 C         141.0702  145.5216  158.2965 C.ar    1  UNL1        0.0329
     27 C         142.1170  144.7948  157.5054 C.ar    1  UNL1        0.1592
     28 F         142.2258  145.0146  156.0256 F       1  UNL1       -0.2025
     29 C         143.0549  143.8482  158.1940 C.ar    1  UNL1        0.1285
     30 N         142.9461  143.6284  159.6738 N.ar    1  UNL1       -0.2369
@<TRIPOS>BOND
     1     1     2    1
     2     2     3    2
     3     3     4    1
     4     4     5    1
     5     5     6    1
     6     4     7    1
     7     7     8   ar
     8     8     9   ar
     9     9    20    1
    10    20    21   am
    11    21    22    2
    12    21    24    1
    13    24    25   ar
    14    25    26   ar
    15    26    27   ar
    16    27    28    1
    17    27    29   ar
    18    29    30   ar
    19     9    10   ar
    20    10    11   ar
    21    11    12   ar
    22    12    13    1
    23    13    14    1
    24    14    15    1
    25    15    16    1
    26    16    17    1
    27     6     2    1
    28    12     7   ar
    29    17    15    1
    30    15     4    1
    31    30    24   ar
    32     1    18    1
    33     1    19    1
    34    20    23    1
@<TRIPOS>MOLECULE
*****
 30 34 0 0 0
SMALL
GASTEIGER

@<TRIPOS>ATOM
      1 N         143.6915  138.0949  167.0526 N.pl3   1  UNL1       -0.3133
      2 C         142.9809  139.1177  167.8888 C.2     1  UNL1        0.2770
      3 N         142.1974  140.2881  167.3728 N.2     1  UNL1       -0.2204
      4 C         141.6614  141.0433  168.5529 C.3     1  UNL1        0.1537
      5 C         142.1137  140.3396  169.7979 C.3     1  UNL1        0.2350
      6 O         142.9292  139.1496  169.3875 O.2     1  UNL1       -0.4478
      7 C         141.2859  141.6363  167.2271 C.ar    1  UNL1        0.0367
      8 C         141.7510  140.9881  165.9569 C.ar    1  UNL1        0.0153
      9 C         141.3755  141.5810  164.6312 C.ar    1  UNL1        0.0505
     10 C         140.5348  142.8221  164.5757 C.ar    1  UNL1        0.0178
     11 C         140.0697  143.4702  165.8461 C.ar    1  UNL1        0.0379
     12 C         140.4452  142.8773  167.1717 C.ar    1  UNL1        0.1364
     13 O         139.9800  143.5254  168.4420 O.3     1  UNL1       -0.4756
     14 C         140.3556  142.9325  169.7677 C.3     1  UNL1        0.2074
     15 C         141.1963  141.6915  169.8231 C.3     1  UNL1        0.0666
     16 C         141.8984  140.6327  170.6205 C.3     1  UNL1        0.0061
     17 C         141.1445  141.7233  171.3219 C.3     1  UNL1        0.0061
     18 H         143.6676  138.1592  166.0705 H       1  UNL1        0.1466
     19 H         144.1818  137.3593  167.4860 H       1  UNL1        0.1466
     20 N         141.8407  140.9329  163.3609 N.am    1  UNL1       -0.2791
     21 C         141.0693  139.7862  162.7779 C.2     1  UNL1        0.2672
     22 O         139.8328  139.2875  163.4651 O.2     1  UNL1       -0.2682
     23 H         142.6523  141.2602  162.9099 H       1  UNL1        0.1552
     24 C         141.5344  139.1380  161.5077 C.ar    1  UNL1        0.1349
     25 C         142.7458  138.2535  161.5170 C.ar    1  UNL1        0.0261
     26 C         143.2110  137.6054  160.2466 C.ar    1  UNL1        0.0329
     27 C         142.4647  137.8418  158.9671 C.ar    1  UNL1        0.1592
     28 F         142.9299  137.1937  157.6969 F       1  UNL1       -0.2025
     29 C         141.2533  138.7263  158.9579 C.ar    1  UNL1        0.1285
     30 N         140.7882  139.3744  160.2281 N.ar    1  UNL1       -0.2369
@<TRIPOS>BOND
     1     1     2    1
     2     2     3    2
     3     3     4    1
     4     4     5    1
     5     5     6    1
     6     4     7    1
     7     7     8   ar
     8     8     9   ar
     9     9    20    1
    10    20    21   am
    11    21    22    2
    12    21    24    1
    13    24    25   ar
    14    25    26   ar
    15    26    27   ar
    16    27    28    1
    17    27    29   ar
    18    29    30   ar
    19     9    10   ar
    20    10    11   ar
    21    11    12   ar
    22    12    13    1
    23    13    14    1
    24    14    15    1
    25    15    16    1
    26    16    17    1
    27     6     2    1
    28    12     7   ar
    29    17    15    1
    30    15     4    1
    31    30    24   ar
    32     1    18    1
    33     1    19    1
    34    20    23    1
