@<TRIPOS>MOLECULE
*****
 39 43 0 0 0
SMALL
GASTEIGER

@<TRIPOS>ATOM
      1 C         141.3434  141.8102  164.9684 C.3     1  UNL1        0.0433
      2 C         140.0763  142.6076  164.8751 C.ar    1  UNL1       -0.0208
      3 C         138.9487  142.1253  164.0114 C.ar    1  UNL1       -0.0042
      4 C         137.6815  142.9225  163.9181 C.ar    1  UNL1       -0.0003
      5 C         137.5420  144.2021  164.6884 C.ar    1  UNL1       -0.0000
      6 C         138.6696  144.6844  165.5521 C.ar    1  UNL1       -0.0003
      7 C         139.9368  143.8871  165.6454 C.ar    1  UNL1       -0.0042
      8 C         141.3093  140.4068  165.4967 C.3     1  UNL1        0.0234
      9 C         141.0385  140.1594  166.9512 C.3     1  UNL1        0.0724
     10 C         141.1442  140.2494  167.0246 C.3     1  UNL1        0.0904
     11 C         139.9901  140.8747  167.7507 C.3     1  UNL1        0.0386
     12 C         140.2360  141.9615  168.7549 C.3     1  UNL1        0.0594
     13 C         140.9254  142.9660  169.6300 C.3     1  UNL1        0.0174
     14 C         142.3999  142.8714  169.3713 C.3     1  UNL1        0.0174
     15 C         142.6218  141.8086  168.3363 C.3     1  UNL1        0.0594
     16 C         142.5441  140.7110  167.3027 C.3     1  UNL1        0.0386
     17 N         141.2844  141.2462  167.9553 N.3     1  UNL1       -0.2751
     18 C         138.2339  139.3217  165.8759 C.3     1  UNL1        0.0738
     19 C         139.5607  138.7362  165.4924 C.ar    1  UNL1        0.1433
     20 N         139.7826  137.6214  164.5136 N.ar    1  UNL1       -0.1337
     21 N         141.2574  137.3589  164.4367 N.ar    1  UNL1       -0.1337
     22 C         141.9470  138.3113  165.3679 C.ar    1  UNL1        0.1425
     23 N         140.8983  139.1626  166.0204 N.ar    1  UNL1       -0.3039
     24 C         143.4256  138.3975  165.6050 C.3     1  UNL1        0.0588
     25 C         144.0300  137.7502  166.8157 C.3     1  UNL1        0.0080
     26 C         144.3000  139.1310  164.6315 C.3     1  UNL1        0.0080
     27 C         142.6447  142.4165  164.5333 C.3     1  UNL1        0.0937
     28 N         143.0755  142.3188  163.0998 N.am    1  UNL1       -0.3040
     29 C         142.5984  143.3325  162.1025 C.2     1  UNL1        0.2220
     30 O         141.6905  144.4440  162.5387 O.2     1  UNL1       -0.2751
     31 H         143.6714  141.5892  162.8135 H       1  UNL1        0.1494
     32 C         143.0292  143.2348  160.6691 C.3     1  UNL1        0.0768
     33 C         142.1783  143.8320  159.5878 C.3     1  UNL1        0.0147
     34 C         142.6092  143.7342  158.1543 C.3     1  UNL1        0.0671
     35 C         143.8910  143.0392  157.8021 C.3     1  UNL1        0.2640
     36 F         145.0125  142.4848  156.9746 F       1  UNL1       -0.2043
     37 F         143.4295  143.4439  156.4334 F       1  UNL1       -0.2043
     38 C         144.7419  142.4420  158.8834 C.3     1  UNL1        0.0671
     39 C         144.3111  142.5398  160.3169 C.3     1  UNL1        0.0147
@<TRIPOS>BOND
     1    18    19    1
     2    19    20   ar
     3    20    21   ar
     4    21    22   ar
     5    22    24    1
     6    24    25    1
     7    24    26    1
     8    22    23   ar
     9    10    23    1
    10    10    11    1
    11    12    11    1
    12    12    13    1
    13    13    14    1
    14    15    14    1
    15    15    16    1
    16    15    17    1
    17    17     9    1
    18     9     8    1
    19     8     1    1
    20     1    27    1
    21    27    28    1
    22    28    29   am
    23    29    30    2
    24    29    32    1
    25    32    33    1
    26    33    34    1
    27    34    35    1
    28    35    36    1
    29    35    37    1
    30    35    38    1
    31    38    39    1
    32     1     2    1
    33     2     3   ar
    34     3     4   ar
    35     4     5   ar
    36     5     6   ar
    37     6     7   ar
    38    23    19   ar
    39    16    10    1
    40    39    32    1
    41     7     2   ar
    42    17    12    1
    43    28    31    1
@<TRIPOS>MOLECULE
*****
 39 43 0 0 0
SMALL
GASTEIGER

@<TRIPOS>ATOM
      1 C         141.2324  141.3691  163.4613 C.3     1  UNL1        0.0433
      2 C         140.7912  140.0072  163.9092 C.ar    1  UNL1       -0.0208
      3 C         141.8122  138.9678  164.2662 C.ar    1  UNL1       -0.0042
      4 C         141.3710  137.6059  164.7141 C.ar    1  UNL1       -0.0003
      5 C         139.9088  137.2834  164.8050 C.ar    1  UNL1       -0.0000
      6 C         138.8879  138.3227  164.4480 C.ar    1  UNL1       -0.0003
      7 C         139.3291  139.6846  164.0001 C.ar    1  UNL1       -0.0042
      8 C         140.8759  142.5781  164.2744 C.3     1  UNL1        0.0234
      9 C         141.4663  142.7636  165.6408 C.3     1  UNL1        0.0724
     10 C         141.3723  142.6764  165.7316 C.3     1  UNL1        0.0904
     11 C         142.6127  141.9866  166.2169 C.3     1  UNL1        0.0386
     12 C         142.5111  140.8881  167.2333 C.3     1  UNL1        0.0594
     13 C         141.9538  139.8937  168.2082 C.3     1  UNL1        0.0174
     14 C         140.4628  140.0561  168.2347 C.3     1  UNL1        0.0174
     15 C         140.0987  141.1510  167.2762 C.3     1  UNL1        0.0594
     16 C         140.0303  142.2679  166.2628 C.3     1  UNL1        0.0386
     17 N         141.3646  141.6652  166.6573 N.3     1  UNL1       -0.2751
     18 C         144.1087  143.6921  164.2720 C.3     1  UNL1        0.0738
     19 C         142.7317  144.2418  164.0442 C.ar    1  UNL1        0.1433
     20 N         142.3707  145.3547  163.1056 N.ar    1  UNL1       -0.1337
     21 N         140.8899  145.5757  163.1964 N.ar    1  UNL1       -0.1337
     22 C         140.3356  144.5994  164.1911 C.ar    1  UNL1        0.1425
     23 N         141.4739  143.7749  164.7151 N.ar    1  UNL1       -0.3039
     24 C         138.8959  144.4701  164.5916 C.3     1  UNL1        0.0588
     25 C         137.9324  143.7420  163.7020 C.3     1  UNL1        0.0080
     26 C         138.4195  145.0690  165.8818 C.3     1  UNL1        0.0080
     27 C         142.0302  141.5219  162.2003 C.3     1  UNL1        0.0937
     28 N         141.5207  142.3941  161.0914 N.am    1  UNL1       -0.3040
     29 C         142.4630  143.3023  160.3583 C.2     1  UNL1        0.2220
     30 O         143.9147  143.3381  160.7340 O.2     1  UNL1       -0.2751
     31 H         140.5679  142.3706  160.8449 H       1  UNL1        0.1494
     32 C         141.9535  144.1745  159.2495 C.3     1  UNL1        0.0768
     33 C         140.7380  145.0270  159.4640 C.3     1  UNL1        0.0147
     34 C         140.2285  145.8992  158.3551 C.3     1  UNL1        0.0671
     35 C         140.9345  145.9191  157.0318 C.3     1  UNL1        0.2640
     36 F         141.2573  146.2783  155.6117 F       1  UNL1       -0.2043
     37 F         139.8311  146.8963  156.7530 F       1  UNL1       -0.2043
     38 C         142.1499  145.0667  156.8173 C.3     1  UNL1        0.0671
     39 C         142.6594  144.1944  157.9261 C.3     1  UNL1        0.0147
@<TRIPOS>BOND
     1    18    19    1
     2    19    20   ar
     3    20    21   ar
     4    21    22   ar
     5    22    24    1
     6    24    25    1
     7    24    26    1
     8    22    23   ar
     9    10    23    1
    10    10    11    1
    11    12    11    1
    12    12    13    1
    13    13    14    1
    14    15    14    1
    15    15    16    1
    16    15    17    1
    17    17     9    1
    18     9     8    1
    19     8     1    1
    20     1    27    1
    21    27    28    1
    22    28    29   am
    23    29    30    2
    24    29    32    1
    25    32    33    1
    26    33    34    1
    27    34    35    1
    28    35    36    1
    29    35    37    1
    30    35    38    1
    31    38    39    1
    32     1     2    1
    33     2     3   ar
    34     3     4   ar
    35     4     5   ar
    36     5     6   ar
    37     6     7   ar
    38    23    19   ar
    39    16    10    1
    40    39    32    1
    41     7     2   ar
    42    17    12    1
    43    28    31    1
@<TRIPOS>MOLECULE
*****
 39 43 0 0 0
SMALL
GASTEIGER

@<TRIPOS>ATOM
      1 C         140.4246  142.4455  162.4835 C.3     1  UNL1        0.0433
      2 C         140.2447  140.9602  162.3761 C.ar    1  UNL1       -0.0208
      3 C         139.2945  140.3911  161.3644 C.ar    1  UNL1       -0.0042
      4 C         139.1146  138.9058  161.2569 C.ar    1  UNL1       -0.0003
      5 C         139.8849  137.9896  162.1610 C.ar    1  UNL1       -0.0000
      6 C         140.8350  138.5587  163.1727 C.ar    1  UNL1       -0.0003
      7 C         141.0149  140.0440  163.2802 C.ar    1  UNL1       -0.0042
      8 C         141.1565  143.1921  161.4080 C.3     1  UNL1        0.0234
      9 C         142.3322  144.0542  161.7607 C.3     1  UNL1        0.0724
     10 C         142.4201  143.9431  161.8284 C.3     1  UNL1        0.0904
     11 C         142.7130  144.9429  162.9075 C.3     1  UNL1        0.0386
     12 C         143.6005  144.5674  164.0570 C.3     1  UNL1        0.0594
     13 C         144.4983  143.7865  164.9704 C.3     1  UNL1        0.0174
     14 C         144.6723  142.4152  164.3880 C.3     1  UNL1        0.0174
     15 C         143.8821  142.3485  163.1148 C.3     1  UNL1        0.0594
     16 C         143.0146  142.5677  161.8989 C.3     1  UNL1        0.0386
     17 N         143.2197  143.6787  162.9102 N.3     1  UNL1       -0.2751
     18 C         140.0400  146.1749  161.8919 C.3     1  UNL1        0.0738
     19 C         140.4386  145.3444  160.7080 C.ar    1  UNL1        0.1433
     20 N         139.8133  145.3940  159.3455 N.ar    1  UNL1       -0.1337
     21 N         140.5207  144.3988  158.4743 N.ar    1  UNL1       -0.1337
     22 C         141.5833  143.7341  159.2983 C.ar    1  UNL1        0.1425
     23 N         141.5326  144.3186  160.6788 N.ar    1  UNL1       -0.3039
     24 C         142.5304  142.6716  158.8249 C.3     1  UNL1        0.0588
     25 C         143.9434  143.0298  158.4712 C.3     1  UNL1        0.0080
     26 C         142.0645  141.2507  158.7053 C.3     1  UNL1        0.0080
     27 C         139.8724  143.1841  163.6666 C.3     1  UNL1        0.0937
     28 N         140.6787  143.2912  164.9269 N.am    1  UNL1       -0.3040
     29 C         140.3848  142.3840  166.0847 C.2     1  UNL1        0.2220
     30 O         139.2846  141.3695  165.9821 O.2     1  UNL1       -0.2751
     31 H         141.4008  143.9570  164.9943 H       1  UNL1        0.1494
     32 C         141.1911  142.4911  167.3450 C.3     1  UNL1        0.0768
     33 C         142.6246  142.0497  167.3581 C.3     1  UNL1        0.0147
     34 C         143.4308  142.1569  168.6185 C.3     1  UNL1        0.0671
     35 C         142.8036  142.7054  169.8657 C.3     1  UNL1        0.2640
     36 F         142.6564  143.1549  171.2892 F       1  UNL1       -0.2043
     37 F         144.1860  142.4201  170.3732 F       1  UNL1       -0.2043
     38 C         141.3701  143.1468  169.8527 C.3     1  UNL1        0.0671
     39 C         140.5638  143.0397  168.5923 C.3     1  UNL1        0.0147
@<TRIPOS>BOND
     1    18    19    1
     2    19    20   ar
     3    20    21   ar
     4    21    22   ar
     5    22    24    1
     6    24    25    1
     7    24    26    1
     8    22    23   ar
     9    10    23    1
    10    10    11    1
    11    12    11    1
    12    12    13    1
    13    13    14    1
    14    15    14    1
    15    15    16    1
    16    15    17    1
    17    17     9    1
    18     9     8    1
    19     8     1    1
    20     1    27    1
    21    27    28    1
    22    28    29   am
    23    29    30    2
    24    29    32    1
    25    32    33    1
    26    33    34    1
    27    34    35    1
    28    35    36    1
    29    35    37    1
    30    35    38    1
    31    38    39    1
    32     1     2    1
    33     2     3   ar
    34     3     4   ar
    35     4     5   ar
    36     5     6   ar
    37     6     7   ar
    38    23    19   ar
    39    16    10    1
    40    39    32    1
    41     7     2   ar
    42    17    12    1
    43    28    31    1
@<TRIPOS>MOLECULE
*****
 39 43 0 0 0
SMALL
GASTEIGER

@<TRIPOS>ATOM
      1 C         141.8367  141.1681  164.6325 C.3     1  UNL1        0.0433
      2 C         142.6086  142.4542  164.6262 C.ar    1  UNL1       -0.0208
      3 C         143.8082  142.6132  165.5127 C.ar    1  UNL1       -0.0042
      4 C         144.5802  143.8992  165.5065 C.ar    1  UNL1       -0.0003
      5 C         144.1527  145.0263  164.6137 C.ar    1  UNL1       -0.0000
      6 C         142.9532  144.8673  163.7271 C.ar    1  UNL1       -0.0003
      7 C         142.1812  143.5812  163.7334 C.ar    1  UNL1       -0.0042
      8 C         140.4111  141.1513  165.0985 C.3     1  UNL1        0.0234
      9 C         140.0823  141.5027  166.5193 C.3     1  UNL1        0.0724
     10 C         140.1820  141.4098  166.5973 C.3     1  UNL1        0.0904
     11 C         140.6018  142.6318  167.3591 C.3     1  UNL1        0.0386
     12 C         141.6565  142.5282  168.4206 C.3     1  UNL1        0.0594
     13 C         142.6980  141.9753  169.3478 C.3     1  UNL1        0.0174
     14 C         142.8222  140.5045  169.0809 C.3     1  UNL1        0.0174
     15 C         141.8575  140.1484  167.9889 C.3     1  UNL1        0.0594
     16 C         140.8169  140.0842  166.8970 C.3     1  UNL1        0.0386
     17 N         141.1370  141.3992  167.5808 N.3     1  UNL1       -0.2751
     18 C         139.2756  144.1383  165.0534 C.3     1  UNL1        0.0738
     19 C         138.7106  142.7674  164.8261 C.ar    1  UNL1        0.1433
     20 N         137.6299  142.4101  163.8492 N.ar    1  UNL1       -0.1337
     21 N         137.3786  140.9351  163.9551 N.ar    1  UNL1       -0.1337
     22 C         138.3040  140.3808  164.9973 C.ar    1  UNL1        0.1425
     23 N         139.1273  141.5133  165.5357 N.ar    1  UNL1       -0.3039
     24 C         138.3909  138.9460  165.4261 C.3     1  UNL1        0.0588
     25 C         137.8039  138.5186  166.7386 C.3     1  UNL1        0.0080
     26 C         139.0648  137.9386  164.5423 C.3     1  UNL1        0.0080
     27 C         142.4905  139.8987  164.1727 C.3     1  UNL1        0.0937
     28 N         142.3755  139.4725  162.7391 N.am    1  UNL1       -0.3040
     29 C         143.4017  139.9177  161.7397 C.2     1  UNL1        0.2220
     30 O         144.5428  140.7891  162.1739 O.2     1  UNL1       -0.2751
     31 H         141.6266  138.9005  162.4541 H       1  UNL1        0.1494
     32 C         143.2867  139.4915  160.3062 C.3     1  UNL1        0.0768
     33 C         143.7016  140.4274  159.2098 C.3     1  UNL1        0.0147
     34 C         143.5866  140.0011  157.7763 C.3     1  UNL1        0.0671
     35 C         143.0568  138.6389  157.4391 C.3     1  UNL1        0.2640
     36 F         142.6182  137.4595  156.6226 F       1  UNL1       -0.2043
     37 F         143.3193  139.1652  156.0591 F       1  UNL1       -0.2043
     38 C         142.6420  137.7030  158.5353 C.3     1  UNL1        0.0671
     39 C         142.7569  138.1292  159.9689 C.3     1  UNL1        0.0147
@<TRIPOS>BOND
     1    18    19    1
     2    19    20   ar
     3    20    21   ar
     4    21    22   ar
     5    22    24    1
     6    24    25    1
     7    24    26    1
     8    22    23   ar
     9    10    23    1
    10    10    11    1
    11    12    11    1
    12    12    13    1
    13    13    14    1
    14    15    14    1
    15    15    16    1
    16    15    17    1
    17    17     9    1
    18     9     8    1
    19     8     1    1
    20     1    27    1
    21    27    28    1
    22    28    29   am
    23    29    30    2
    24    29    32    1
    25    32    33    1
    26    33    34    1
    27    34    35    1
    28    35    36    1
    29    35    37    1
    30    35    38    1
    31    38    39    1
    32     1     2    1
    33     2     3   ar
    34     3     4   ar
    35     4     5   ar
    36     5     6   ar
    37     6     7   ar
    38    23    19   ar
    39    16    10    1
    40    39    32    1
    41     7     2   ar
    42    17    12    1
    43    28    31    1
@<TRIPOS>MOLECULE
*****
 39 43 0 0 0
SMALL
GASTEIGER

@<TRIPOS>ATOM
      1 C         141.1393  140.6636  162.6521 C.3     1  UNL1        0.0433
      2 C         141.6241  140.1166  161.3422 C.ar    1  UNL1       -0.0208
      3 C         141.8832  138.6466  161.1933 C.ar    1  UNL1       -0.0042
      4 C         142.3680  138.0994  159.8834 C.ar    1  UNL1       -0.0003
      5 C         142.5936  139.0222  158.7225 C.ar    1  UNL1       -0.0000
      6 C         142.3345  140.4921  158.8715 C.ar    1  UNL1       -0.0003
      7 C         141.8497  141.0393  160.1813 C.ar    1  UNL1       -0.0042
      8 C         139.8431  141.4155  162.7172 C.3     1  UNL1        0.0234
      9 C         138.5699  140.6890  163.0357 C.3     1  UNL1        0.0724
     10 C         138.5516  140.6579  163.1886 C.3     1  UNL1        0.0904
     11 C         138.7953  139.2184  162.8448 C.3     1  UNL1        0.0386
     12 C         138.7761  138.1761  163.9234 C.3     1  UNL1        0.0594
     13 C         138.6676  137.5126  165.2643 C.3     1  UNL1        0.0174
     14 C         138.3752  138.5732  166.2839 C.3     1  UNL1        0.0174
     15 C         138.3030  139.8922  165.5732 C.3     1  UNL1        0.0594
     16 C         138.2888  141.0553  164.6109 C.3     1  UNL1        0.0386
     17 N         138.5508  139.6468  164.1143 N.3     1  UNL1       -0.2751
     18 C         138.1191  140.1249  159.9982 C.3     1  UNL1        0.0738
     19 C         138.3719  141.4553  160.6435 C.ar    1  UNL1        0.1433
     20 N         138.4703  142.7741  159.9357 N.ar    1  UNL1       -0.1337
     21 N         138.7300  143.8341  160.9647 N.ar    1  UNL1       -0.1337
     22 C         138.7920  143.1705  162.3084 C.ar    1  UNL1        0.1425
     23 N         138.5707  141.7003  162.1099 N.ar    1  UNL1       -0.3039
     24 C         139.0330  143.8566  163.6203 C.3     1  UNL1        0.0588
     25 C         137.8811  144.1542  164.5339 C.3     1  UNL1        0.0080
     26 C         140.4260  144.2452  164.0188 C.3     1  UNL1        0.0080
     27 C         141.9510  140.4588  163.8968 C.3     1  UNL1        0.0937
     28 N         141.5720  141.1658  165.1642 N.am    1  UNL1       -0.3040
     29 C         141.5746  140.4227  166.4672 C.2     1  UNL1        0.2220
     30 O         141.9564  138.9725  166.5027 O.2     1  UNL1       -0.2751
     31 H         141.3214  142.1176  165.1409 H       1  UNL1        0.1494
     32 C         141.1955  141.1297  167.7346 C.3     1  UNL1        0.0768
     33 C         141.3394  140.4319  169.0546 C.3     1  UNL1        0.0147
     34 C         140.9603  141.1391  170.3220 C.3     1  UNL1        0.0671
     35 C         140.4373  142.5439  170.2694 C.3     1  UNL1        0.2640
     36 F         139.8995  143.8659  170.7309 F       1  UNL1       -0.2043
     37 F         140.3944  142.3052  171.7497 F       1  UNL1       -0.2043
     38 C         140.2934  143.2417  168.9495 C.3     1  UNL1        0.0671
     39 C         140.6725  142.5347  167.6821 C.3     1  UNL1        0.0147
@<TRIPOS>BOND
     1    18    19    1
     2    19    20   ar
     3    20    21   ar
     4    21    22   ar
     5    22    24    1
     6    24    25    1
     7    24    26    1
     8    22    23   ar
     9    10    23    1
    10    10    11    1
    11    12    11    1
    12    12    13    1
    13    13    14    1
    14    15    14    1
    15    15    16    1
    16    15    17    1
    17    17     9    1
    18     9     8    1
    19     8     1    1
    20     1    27    1
    21    27    28    1
    22    28    29   am
    23    29    30    2
    24    29    32    1
    25    32    33    1
    26    33    34    1
    27    34    35    1
    28    35    36    1
    29    35    37    1
    30    35    38    1
    31    38    39    1
    32     1     2    1
    33     2     3   ar
    34     3     4   ar
    35     4     5   ar
    36     5     6   ar
    37     6     7   ar
    38    23    19   ar
    39    16    10    1
    40    39    32    1
    41     7     2   ar
    42    17    12    1
    43    28    31    1
@<TRIPOS>MOLECULE
*****
 39 43 0 0 0
SMALL
GASTEIGER

@<TRIPOS>ATOM
      1 C         139.9690  141.5026  163.3702 C.3     1  UNL1        0.0433
      2 C         139.5504  140.2887  164.1454 C.ar    1  UNL1       -0.0208
      3 C         138.4240  140.3804  165.1319 C.ar    1  UNL1       -0.0042
      4 C         138.0053  139.1665  165.9072 C.ar    1  UNL1       -0.0003
      5 C         138.7130  137.8608  165.6960 C.ar    1  UNL1       -0.0000
      6 C         139.8392  137.7691  164.7096 C.ar    1  UNL1       -0.0003
      7 C         140.2579  138.9830  163.9343 C.ar    1  UNL1       -0.0042
      8 C         139.8432  142.8651  163.9846 C.3     1  UNL1        0.0234
      9 C         140.8853  143.3530  164.9469 C.3     1  UNL1        0.0724
     10 C         140.8516  143.3046  165.0925 C.3     1  UNL1        0.0904
     11 C         142.0998  142.4758  165.0221 C.3     1  UNL1        0.0386
     12 C         142.5006  141.6232  166.1893 C.3     1  UNL1        0.0594
     13 C         142.5081  140.9560  167.5327 C.3     1  UNL1        0.0174
     14 C         141.2983  141.4209  168.2878 C.3     1  UNL1        0.0174
     15 C         140.5431  142.3754  167.4111 C.3     1  UNL1        0.0594
     16 C         140.0043  143.2809  166.3300 C.3     1  UNL1        0.0386
     17 N         141.2862  142.5004  166.1141 N.3     1  UNL1       -0.2751
     18 C         137.8069  144.1888  164.3191 C.3     1  UNL1        0.0738
     19 C         139.0512  144.5637  163.5697 C.ar    1  UNL1        0.1433
     20 N         139.1144  145.4107  162.3334 N.ar    1  UNL1       -0.1337
     21 N         140.5529  145.5278  161.9248 N.ar    1  UNL1       -0.1337
     22 C         141.3787  144.7531  162.9085 C.ar    1  UNL1        0.1425
     23 N         140.4506  144.1573  163.9252 N.ar    1  UNL1       -0.3039
     24 C         142.8707  144.6010  162.8806 C.3     1  UNL1        0.0588
     25 C         143.7221  145.3799  163.8389 C.3     1  UNL1        0.0080
     26 C         143.5115  143.6699  161.8944 C.3     1  UNL1        0.0080
     27 C         140.5135  141.3539  161.9803 C.3     1  UNL1        0.0937
     28 N         140.2037  142.3881  160.9389 N.am    1  UNL1       -0.3040
     29 C         140.9927  142.4280  159.6638 C.2     1  UNL1        0.2220
     30 O         142.0914  141.4339  159.4301 O.2     1  UNL1       -0.2751
     31 H         139.4826  143.0405  161.0922 H       1  UNL1        0.1494
     32 C         140.6830  143.4621  158.6223 C.3     1  UNL1        0.0768
     33 C         139.5739  143.2284  157.6398 C.3     1  UNL1        0.0147
     34 C         139.2643  144.2626  156.5983 C.3     1  UNL1        0.0671
     35 C         140.0636  145.5305  156.5394 C.3     1  UNL1        0.2640
     36 F         140.5346  146.8799  156.0844 F       1  UNL1       -0.2043
     37 F         139.1181  145.7654  155.3988 F       1  UNL1       -0.2043
     38 C         141.1726  145.7642  157.5219 C.3     1  UNL1        0.0671
     39 C         141.4824  144.7301  158.5633 C.3     1  UNL1        0.0147
@<TRIPOS>BOND
     1    18    19    1
     2    19    20   ar
     3    20    21   ar
     4    21    22   ar
     5    22    24    1
     6    24    25    1
     7    24    26    1
     8    22    23   ar
     9    10    23    1
    10    10    11    1
    11    12    11    1
    12    12    13    1
    13    13    14    1
    14    15    14    1
    15    15    16    1
    16    15    17    1
    17    17     9    1
    18     9     8    1
    19     8     1    1
    20     1    27    1
    21    27    28    1
    22    28    29   am
    23    29    30    2
    24    29    32    1
    25    32    33    1
    26    33    34    1
    27    34    35    1
    28    35    36    1
    29    35    37    1
    30    35    38    1
    31    38    39    1
    32     1     2    1
    33     2     3   ar
    34     3     4   ar
    35     4     5   ar
    36     5     6   ar
    37     6     7   ar
    38    23    19   ar
    39    16    10    1
    40    39    32    1
    41     7     2   ar
    42    17    12    1
    43    28    31    1
@<TRIPOS>MOLECULE
*****
 39 43 0 0 0
SMALL
GASTEIGER

@<TRIPOS>ATOM
      1 C         140.2351  140.8919  165.0816 C.3     1  UNL1        0.0433
      2 C         139.4539  139.6813  165.4990 C.ar    1  UNL1       -0.0208
      3 C         138.5299  139.7550  166.6784 C.ar    1  UNL1       -0.0042
      4 C         137.7487  138.5444  167.0959 C.ar    1  UNL1       -0.0003
      5 C         137.8916  137.2601  166.3341 C.ar    1  UNL1       -0.0000
      6 C         138.8155  137.1865  165.1547 C.ar    1  UNL1       -0.0003
      7 C         139.5967  138.3970  164.7372 C.ar    1  UNL1       -0.0042
      8 C         141.7313  140.8922  165.1872 C.3     1  UNL1        0.0234
      9 C         142.3880  140.9374  166.5351 C.3     1  UNL1        0.0724
     10 C         142.3030  141.0453  166.6114 C.3     1  UNL1        0.0904
     11 C         142.1081  140.0175  167.6864 C.3     1  UNL1        0.0386
     12 C         141.2983  140.3505  168.9044 C.3     1  UNL1        0.0594
     13 C         140.4533  141.0932  169.8965 C.3     1  UNL1        0.0174
     14 C         140.2110  142.4722  169.3583 C.3     1  UNL1        0.0174
     15 C         140.9062  142.5817  168.0337 C.3     1  UNL1        0.0594
     16 C         141.6882  142.4060  166.7544 C.3     1  UNL1        0.0386
     17 N         141.5782  141.2704  167.7531 N.3     1  UNL1       -0.2751
     18 C         142.7958  138.0582  165.3932 C.3     1  UNL1        0.0738
     19 C         143.3393  139.3394  164.8334 C.ar    1  UNL1        0.1433
     20 N         144.2047  139.4724  163.6155 N.ar    1  UNL1       -0.1337
     21 N         144.5130  140.9276  163.4227 N.ar    1  UNL1       -0.1337
     22 C         143.8382  141.6940  164.5214 C.ar    1  UNL1        0.1425
     23 N         143.1128  140.7124  165.3934 N.ar    1  UNL1       -0.3039
     24 C         143.8812  143.1809  164.7145 C.3     1  UNL1        0.0588
     25 C         144.7931  143.7773  165.7453 C.3     1  UNL1        0.0080
     26 C         143.0123  144.0715  163.8766 C.3     1  UNL1        0.0080
     27 C         139.5198  142.1022  164.5585 C.3     1  UNL1        0.0937
     28 N         139.9444  142.7214  163.2599 N.am    1  UNL1       -0.3040
     29 C         138.9538  142.8779  162.1444 C.2     1  UNL1        0.2220
     30 O         137.5387  142.4152  162.3275 O.2     1  UNL1       -0.2751
     31 H         140.8731  143.0250  163.1397 H       1  UNL1        0.1494
     32 C         139.3784  143.4971  160.8458 C.3     1  UNL1        0.0768
     33 C         140.1514  144.7825  160.8451 C.3     1  UNL1        0.0147
     34 C         140.5759  145.4016  159.5464 C.3     1  UNL1        0.0671
     35 C         140.2274  144.7353  158.2485 C.3     1  UNL1        0.2640
     36 F         140.1364  144.4853  156.7723 F       1  UNL1       -0.2043
     37 F         140.9688  145.9339  157.7351 F       1  UNL1       -0.2043
     38 C         139.4544  143.4499  158.2492 C.3     1  UNL1        0.0671
     39 C         139.0298  142.8307  159.5478 C.3     1  UNL1        0.0147
@<TRIPOS>BOND
     1    18    19    1
     2    19    20   ar
     3    20    21   ar
     4    21    22   ar
     5    22    24    1
     6    24    25    1
     7    24    26    1
     8    22    23   ar
     9    10    23    1
    10    10    11    1
    11    12    11    1
    12    12    13    1
    13    13    14    1
    14    15    14    1
    15    15    16    1
    16    15    17    1
    17    17     9    1
    18     9     8    1
    19     8     1    1
    20     1    27    1
    21    27    28    1
    22    28    29   am
    23    29    30    2
    24    29    32    1
    25    32    33    1
    26    33    34    1
    27    34    35    1
    28    35    36    1
    29    35    37    1
    30    35    38    1
    31    38    39    1
    32     1     2    1
    33     2     3   ar
    34     3     4   ar
    35     4     5   ar
    36     5     6   ar
    37     6     7   ar
    38    23    19   ar
    39    16    10    1
    40    39    32    1
    41     7     2   ar
    42    17    12    1
    43    28    31    1
@<TRIPOS>MOLECULE
*****
 39 43 0 0 0
SMALL
GASTEIGER

@<TRIPOS>ATOM
      1 C         140.7225  140.9351  164.2466 C.3     1  UNL1        0.0433
      2 C         139.8711  139.8717  164.8747 C.ar    1  UNL1       -0.0208
      3 C         139.0164  140.1999  166.0629 C.ar    1  UNL1       -0.0042
      4 C         138.1651  139.1366  166.6910 C.ar    1  UNL1       -0.0003
      5 C         138.1684  137.7450  166.1309 C.ar    1  UNL1       -0.0000
      6 C         139.0231  137.4169  164.9427 C.ar    1  UNL1       -0.0003
      7 C         139.8744  138.4802  164.3146 C.ar    1  UNL1       -0.0042
      8 C         142.2096  140.7561  164.1681 C.3     1  UNL1        0.0234
      9 C         143.0651  141.0545  165.3636 C.3     1  UNL1        0.0724
     10 C         143.0424  140.9467  165.4755 C.3     1  UNL1        0.0904
     11 C         142.4505  142.0465  166.3060 C.3     1  UNL1        0.0386
     12 C         141.9401  141.7529  167.6856 C.3     1  UNL1        0.0594
     13 C         141.5749  141.0288  168.9474 C.3     1  UNL1        0.0174
     14 C         141.9638  139.5892  168.7849 C.3     1  UNL1        0.0174
     15 C         142.5693  139.4236  167.4226 C.3     1  UNL1        0.0594
     16 C         143.1241  139.5531  166.0245 C.3     1  UNL1        0.0386
     17 N         142.5547  140.7608  166.7432 N.3     1  UNL1       -0.2751
     18 C         143.5748  138.7518  163.1198 C.3     1  UNL1        0.0738
     19 C         143.7975  140.2314  163.0130 C.ar    1  UNL1        0.1433
     20 N         144.3041  140.9619  161.8048 N.ar    1  UNL1       -0.1337
     21 N         144.3725  142.4221  162.1409 N.ar    1  UNL1       -0.1337
     22 C         143.9082  142.5942  163.5567 C.ar    1  UNL1        0.1425
     23 N         143.5529  141.2403  164.0958 N.ar    1  UNL1       -0.3039
     24 C         143.8155  143.8923  164.3027 C.3     1  UNL1        0.0588
     25 C         144.7644  144.1799  165.4282 C.3     1  UNL1        0.0080
     26 C         142.7739  144.9028  163.9231 C.3     1  UNL1        0.0080
     27 C         140.0865  142.1776  163.6971 C.3     1  UNL1        0.0937
     28 N         140.5069  142.7059  162.3577 N.am    1  UNL1       -0.3040
     29 C         139.5007  143.3665  161.4626 C.2     1  UNL1        0.2220
     30 O         138.0742  143.4989  161.9070 O.2     1  UNL1       -0.2751
     31 H         141.4432  142.6191  162.0661 H       1  UNL1        0.1494
     32 C         139.9212  143.8949  160.1232 C.3     1  UNL1        0.0768
     33 C         139.3455  143.3050  158.8699 C.3     1  UNL1        0.0147
     34 C         139.7661  143.8334  157.5305 C.3     1  UNL1        0.0671
     35 C         140.7621  144.9516  157.4443 C.3     1  UNL1        0.2640
     36 F         141.6674  145.9902  156.8514 F       1  UNL1       -0.2043
     37 F         140.5009  144.7224  155.9851 F       1  UNL1       -0.2043
     38 C         141.3377  145.5415  158.6975 C.3     1  UNL1        0.0671
     39 C         140.9173  145.0132  160.0370 C.3     1  UNL1        0.0147
@<TRIPOS>BOND
     1    18    19    1
     2    19    20   ar
     3    20    21   ar
     4    21    22   ar
     5    22    24    1
     6    24    25    1
     7    24    26    1
     8    22    23   ar
     9    10    23    1
    10    10    11    1
    11    12    11    1
    12    12    13    1
    13    13    14    1
    14    15    14    1
    15    15    16    1
    16    15    17    1
    17    17     9    1
    18     9     8    1
    19     8     1    1
    20     1    27    1
    21    27    28    1
    22    28    29   am
    23    29    30    2
    24    29    32    1
    25    32    33    1
    26    33    34    1
    27    34    35    1
    28    35    36    1
    29    35    37    1
    30    35    38    1
    31    38    39    1
    32     1     2    1
    33     2     3   ar
    34     3     4   ar
    35     4     5   ar
    36     5     6   ar
    37     6     7   ar
    38    23    19   ar
    39    16    10    1
    40    39    32    1
    41     7     2   ar
    42    17    12    1
    43    28    31    1
@<TRIPOS>MOLECULE
*****
 39 43 0 0 0
SMALL
GASTEIGER

@<TRIPOS>ATOM
      1 C         140.1155  141.6937  164.8984 C.3     1  UNL1        0.0433
      2 C         139.9769  141.3980  166.3625 C.ar    1  UNL1       -0.0208
      3 C         140.5124  142.3647  167.3768 C.ar    1  UNL1       -0.0042
      4 C         140.3739  142.0690  168.8409 C.ar    1  UNL1       -0.0003
      5 C         139.6998  140.8066  169.2906 C.ar    1  UNL1       -0.0000
      6 C         139.1643  139.8400  168.2763 C.ar    1  UNL1       -0.0003
      7 C         139.3029  140.1357  166.8122 C.ar    1  UNL1       -0.0042
      8 C         140.8775  140.7536  164.0122 C.3     1  UNL1        0.0234
      9 C         142.3648  140.8925  163.8745 C.3     1  UNL1        0.0724
     10 C         142.4058  141.0079  163.7763 C.3     1  UNL1        0.0904
     11 C         142.9100  141.7466  164.9805 C.3     1  UNL1        0.0386
     12 C         143.5250  143.1057  164.8235 C.3     1  UNL1        0.0594
     13 C         144.0398  144.3771  164.2166 C.3     1  UNL1        0.0174
     14 C         143.8128  144.3088  162.7354 C.3     1  UNL1        0.0174
     15 C         143.1577  142.9951  162.4270 C.3     1  UNL1        0.0594
     16 C         142.5168  141.6283  162.4151 C.3     1  UNL1        0.0386
     17 N         142.9798  142.2515  163.7175 N.3     1  UNL1       -0.2751
     18 C         140.0747  139.7275  161.8852 C.3     1  UNL1        0.0738
     19 C         140.7192  139.0603  163.0640 C.ar    1  UNL1        0.1433
     20 N         140.4054  137.6874  163.5805 N.ar    1  UNL1       -0.1337
     21 N         141.2830  137.4275  164.7689 N.ar    1  UNL1       -0.1337
     22 C         142.1391  138.6396  164.9869 C.ar    1  UNL1        0.1425
     23 N         141.7907  139.6488  163.9332 N.ar    1  UNL1       -0.3039
     24 C         143.1638  138.8124  166.0686 C.3     1  UNL1        0.0588
     25 C         142.7367  139.2153  167.4489 C.3     1  UNL1        0.0080
     26 C         144.6158  138.5823  165.7701 C.3     1  UNL1        0.0080
     27 C         139.4919  142.9297  164.3207 C.3     1  UNL1        0.0937
     28 N         140.0011  143.4920  163.0267 N.am    1  UNL1       -0.3040
     29 C         139.2101  143.3072  161.7658 C.2     1  UNL1        0.2220
     30 O         137.9099  142.5600  161.7988 O.2     1  UNL1       -0.2751
     31 H         140.8545  143.9825  163.0051 H       1  UNL1        0.1494
     32 C         139.7194  143.8695  160.4718 C.3     1  UNL1        0.0768
     33 C         140.6405  145.0534  160.4793 C.3     1  UNL1        0.0147
     34 C         141.1497  145.6157  159.1853 C.3     1  UNL1        0.0671
     35 C         140.7378  144.9942  157.8837 C.3     1  UNL1        0.2640
     36 F         140.6332  144.7550  156.4067 F       1  UNL1       -0.2043
     37 F         141.6226  146.0950  157.3783 F       1  UNL1       -0.2043
     38 C         139.8167  143.8104  157.8761 C.3     1  UNL1        0.0671
     39 C         139.3075  143.2480  159.1701 C.3     1  UNL1        0.0147
@<TRIPOS>BOND
     1    18    19    1
     2    19    20   ar
     3    20    21   ar
     4    21    22   ar
     5    22    24    1
     6    24    25    1
     7    24    26    1
     8    22    23   ar
     9    10    23    1
    10    10    11    1
    11    12    11    1
    12    12    13    1
    13    13    14    1
    14    15    14    1
    15    15    16    1
    16    15    17    1
    17    17     9    1
    18     9     8    1
    19     8     1    1
    20     1    27    1
    21    27    28    1
    22    28    29   am
    23    29    30    2
    24    29    32    1
    25    32    33    1
    26    33    34    1
    27    34    35    1
    28    35    36    1
    29    35    37    1
    30    35    38    1
    31    38    39    1
    32     1     2    1
    33     2     3   ar
    34     3     4   ar
    35     4     5   ar
    36     5     6   ar
    37     6     7   ar
    38    23    19   ar
    39    16    10    1
    40    39    32    1
    41     7     2   ar
    42    17    12    1
    43    28    31    1
