@<TRIPOS>MOLECULE
*****
 31 33 0 0 0
SMALL
GASTEIGER

@<TRIPOS>ATOM
      1 C         138.1222  140.5784  161.6142 C.ar    1  UNL1        0.1616
      2 C         138.0630  140.6603  160.1176 C.ar    1  UNL1        0.0501
      3 C         138.8781  139.7182  159.2821 C.ar    1  UNL1        0.0638
      4 CL        138.8188  139.8002  157.7855 Cl      1  UNL1       -0.0820
      5 C         139.7523  138.6942  159.9431 C.ar    1  UNL1        0.0501
      6 C         139.8115  138.6122  161.4397 C.ar    1  UNL1        0.1616
      7 C         138.9965  139.5543  162.2753 C.ar    1  UNL1        0.1703
      8 N         139.0557  139.4723  163.7719 N.2     1  UNL1       -0.1417
      9 N         139.8152  140.5054  164.5501 N.2     1  UNL1       -0.1447
     10 C         139.8744  140.4235  166.0467 C.ar    1  UNL1        0.1363
     11 C         138.7911  139.7126  166.8023 C.ar    1  UNL1        0.1529
     12 O         137.6484  139.0837  166.0614 O.3     1  UNL1       -0.5039
     13 C         138.8503  139.6307  168.2989 C.ar    1  UNL1        0.0382
     14 C         139.9928  140.2595  169.0399 C.ar    1  UNL1        0.0032
     15 C         141.0762  140.9704  168.2842 C.ar    1  UNL1        0.0017
     16 C         142.2188  141.5993  169.0252 C.ar    1  UNL1        0.0001
     17 C         143.3021  142.3101  168.2695 C.ar    1  UNL1        0.0000
     18 C         143.2429  142.3921  166.7730 C.ar    1  UNL1        0.0001
     19 C         142.1004  141.7632  166.0320 C.ar    1  UNL1        0.0017
     20 C         141.0170  141.0524  166.7876 C.ar    1  UNL1        0.0224
     21 H         137.6114  139.1349  165.1265 H       1  UNL1        0.2923
     22 O         137.3071  141.5204  162.4498 O.3     1  UNL1       -0.4738
     23 C         137.8642  142.8607  162.8284 C.3     1  UNL1        0.2055
     24 C         137.7313  143.3572  164.2376 C.3     1  UNL1        0.0473
     25 C         140.0824  144.4449  164.4350 C.3     1  UNL1        0.0001
     26 C         138.6114  144.4689  164.7272 C.3     1  UNL1        0.0038
     27 O         140.6858  137.5881  162.1008 O.3     1  UNL1       -0.4738
     28 C         142.1612  137.8288  162.2243 C.3     1  UNL1        0.2055
     29 C         142.6645  139.0737  162.8926 C.3     1  UNL1        0.0473
     30 C         143.4220  138.9779  164.1839 C.3     1  UNL1        0.0038
     31 C         144.8193  139.5156  164.2754 C.3     1  UNL1        0.0001
@<TRIPOS>BOND
     1    25    26    1
     2    26    24    1
     3    24    23    1
     4    23    22    1
     5    22     1    1
     6     1     2   ar
     7     2     3   ar
     8     3     4    1
     9     3     5   ar
    10     5     6   ar
    11     6    27    1
    12    27    28    1
    13    28    29    1
    14    29    30    1
    15    30    31    1
    16     6     7   ar
    17     7     8    1
    18     8     9    2
    19     9    10    1
    20    10    11   ar
    21    11    12    1
    22    11    13   ar
    23    13    14   ar
    24    14    15   ar
    25    15    16   ar
    26    16    17   ar
    27    17    18   ar
    28    18    19   ar
    29    19    20   ar
    30     7     1   ar
    31    20    10   ar
    32    20    15   ar
    33    12    21    1
@<TRIPOS>MOLECULE
*****
 31 33 0 0 0
SMALL
GASTEIGER

@<TRIPOS>ATOM
      1 C         142.9745  142.8456  161.3510 C.ar    1  UNL1        0.1616
      2 C         143.0627  143.1517  159.8852 C.ar    1  UNL1        0.0501
      3 C         142.1921  144.2173  159.2879 C.ar    1  UNL1        0.0638
      4 CL        142.2803  144.5234  157.8221 Cl      1  UNL1       -0.0820
      5 C         141.2335  144.9768  160.1564 C.ar    1  UNL1        0.0501
      6 C         141.1454  144.6707  161.6221 C.ar    1  UNL1        0.1616
      7 C         142.0158  143.6051  162.2195 C.ar    1  UNL1        0.1703
      8 N         141.9277  143.2990  163.6853 N.2     1  UNL1       -0.1417
      9 N         141.4158  141.9657  164.1436 N.2     1  UNL1       -0.1447
     10 C         141.3277  141.6596  165.6094 C.ar    1  UNL1        0.1363
     11 C         142.3523  142.2139  166.5542 C.ar    1  UNL1        0.1529
     12 O         143.4651  143.0745  166.0334 O.3     1  UNL1       -0.5039
     13 C         142.2641  141.9079  168.0200 C.ar    1  UNL1        0.0382
     14 C         141.1514  141.0474  168.5409 C.ar    1  UNL1        0.0032
     15 C         140.1267  140.4930  167.5960 C.ar    1  UNL1        0.0017
     16 C         139.0140  139.6325  168.1169 C.ar    1  UNL1        0.0001
     17 C         137.9894  139.0782  167.1721 C.ar    1  UNL1        0.0000
     18 C         138.0775  139.3842  165.7063 C.ar    1  UNL1        0.0001
     19 C         139.1903  140.2447  165.1854 C.ar    1  UNL1        0.0017
     20 C         140.2149  140.7991  166.1302 C.ar    1  UNL1        0.0224
     21 H         143.5201  143.2657  165.1177 H       1  UNL1        0.2923
     22 O         143.8450  141.7800  161.9484 O.3     1  UNL1       -0.4738
     23 C         145.1610  142.1466  162.5676 C.3     1  UNL1        0.2055
     24 C         145.6279  141.4441  163.8080 C.3     1  UNL1        0.0473
     25 C         144.1282  139.5652  164.7931 C.3     1  UNL1        0.0001
     26 C         145.3306  139.9867  164.0015 C.3     1  UNL1        0.0038
     27 O         140.1867  145.4302  162.4906 O.3     1  UNL1       -0.4738
     28 C         138.7342  145.0564  162.5096 C.3     1  UNL1        0.2055
     29 C         138.2949  143.7881  163.1793 C.3     1  UNL1        0.0473
     30 C         138.2450  143.7089  164.6764 C.3     1  UNL1        0.0038
     31 C         138.6350  144.8977  165.5038 C.3     1  UNL1        0.0001
@<TRIPOS>BOND
     1    25    26    1
     2    26    24    1
     3    24    23    1
     4    23    22    1
     5    22     1    1
     6     1     2   ar
     7     2     3   ar
     8     3     4    1
     9     3     5   ar
    10     5     6   ar
    11     6    27    1
    12    27    28    1
    13    28    29    1
    14    29    30    1
    15    30    31    1
    16     6     7   ar
    17     7     8    1
    18     8     9    2
    19     9    10    1
    20    10    11   ar
    21    11    12    1
    22    11    13   ar
    23    13    14   ar
    24    14    15   ar
    25    15    16   ar
    26    16    17   ar
    27    17    18   ar
    28    18    19   ar
    29    19    20   ar
    30     7     1   ar
    31    20    10   ar
    32    20    15   ar
    33    12    21    1
@<TRIPOS>MOLECULE
*****
 31 33 0 0 0
SMALL
GASTEIGER

@<TRIPOS>ATOM
      1 C         140.7277  142.3175  160.8740 C.ar    1  UNL1        0.1616
      2 C         141.4100  143.0451  159.7538 C.ar    1  UNL1        0.0501
      3 C         142.8422  142.7428  159.4255 C.ar    1  UNL1        0.0638
      4 CL        143.5245  143.4704  158.3052 Cl      1  UNL1       -0.0820
      5 C         143.5919  141.7129  160.2174 C.ar    1  UNL1        0.0501
      6 C         142.9095  140.9853  161.3377 C.ar    1  UNL1        0.1616
      7 C         141.4775  141.2875  161.6660 C.ar    1  UNL1        0.1703
      8 N         140.7951  140.5599  162.7862 N.2     1  UNL1       -0.1417
      9 N         140.4517  141.2860  164.0529 N.2     1  UNL1       -0.1447
     10 C         139.7693  140.5584  165.1732 C.ar    1  UNL1        0.1363
     11 C         138.7988  139.4557  164.8700 C.ar    1  UNL1        0.1529
     12 O         138.5105  139.0806  163.4465 O.3     1  UNL1       -0.5039
     13 C         138.1164  138.7280  165.9902 C.ar    1  UNL1        0.0382
     14 C         138.4047  139.1031  167.4137 C.ar    1  UNL1        0.0032
     15 C         139.3753  140.2059  167.7169 C.ar    1  UNL1        0.0017
     16 C         139.6635  140.5810  169.1404 C.ar    1  UNL1        0.0001
     17 C         140.6341  141.6837  169.4435 C.ar    1  UNL1        0.0000
     18 C         141.3164  142.4113  168.3233 C.ar    1  UNL1        0.0001
     19 C         141.0282  142.0362  166.8999 C.ar    1  UNL1        0.0017
     20 C         140.0576  140.9335  166.5967 C.ar    1  UNL1        0.0224
     21 H         138.9367  139.5351  162.7467 H       1  UNL1        0.2923
     22 O         139.2956  142.6197  161.2023 O.3     1  UNL1       -0.4738
     23 C         138.9606  143.7603  162.1170 C.3     1  UNL1        0.2055
     24 C         137.7576  143.6776  163.0094 C.3     1  UNL1        0.0473
     25 C         138.8918  144.7921  165.0639 C.3     1  UNL1        0.0001
     26 C         137.9160  143.8049  164.4955 C.3     1  UNL1        0.0038
     27 O         143.6593  139.9553  162.1296 O.3     1  UNL1       -0.4738
     28 C         144.4834  140.3719  163.3117 C.3     1  UNL1        0.2055
     29 C         143.9018  140.3042  164.6926 C.3     1  UNL1        0.0473
     30 C         143.7809  138.9825  165.3916 C.3     1  UNL1        0.0038
     31 C         142.4663  138.2604  165.4084 C.3     1  UNL1        0.0001
@<TRIPOS>BOND
     1    25    26    1
     2    26    24    1
     3    24    23    1
     4    23    22    1
     5    22     1    1
     6     1     2   ar
     7     2     3   ar
     8     3     4    1
     9     3     5   ar
    10     5     6   ar
    11     6    27    1
    12    27    28    1
    13    28    29    1
    14    29    30    1
    15    30    31    1
    16     6     7   ar
    17     7     8    1
    18     8     9    2
    19     9    10    1
    20    10    11   ar
    21    11    12    1
    22    11    13   ar
    23    13    14   ar
    24    14    15   ar
    25    15    16   ar
    26    16    17   ar
    27    17    18   ar
    28    18    19   ar
    29    19    20   ar
    30     7     1   ar
    31    20    10   ar
    32    20    15   ar
    33    12    21    1
@<TRIPOS>MOLECULE
*****
 31 33 0 0 0
SMALL
GASTEIGER

@<TRIPOS>ATOM
      1 C         140.3413  138.2961  162.7450 C.ar    1  UNL1        0.1616
      2 C         140.7671  138.0953  161.3208 C.ar    1  UNL1        0.0501
      3 C         142.2247  138.0965  160.9664 C.ar    1  UNL1        0.0638
      4 CL        142.6504  137.8956  159.5422 Cl      1  UNL1       -0.0820
      5 C         143.2564  138.2984  162.0363 C.ar    1  UNL1        0.0501
      6 C         142.8307  138.4992  163.4605 C.ar    1  UNL1        0.1616
      7 C         141.3732  138.4981  163.8149 C.ar    1  UNL1        0.1703
      8 N         140.9475  138.6989  165.2391 N.2     1  UNL1       -0.1417
      9 N         140.8002  140.0865  165.7893 N.2     1  UNL1       -0.1447
     10 C         140.3745  140.2873  167.2136 C.ar    1  UNL1        0.1363
     11 C         139.0743  139.7152  167.6955 C.ar    1  UNL1        0.1529
     12 O         138.1998  138.9423  166.7531 O.3     1  UNL1       -0.5039
     13 C         138.6486  139.9161  169.1197 C.ar    1  UNL1        0.0382
     14 C         139.5230  140.6889  170.0620 C.ar    1  UNL1        0.0032
     15 C         140.8233  141.2610  169.5801 C.ar    1  UNL1        0.0017
     16 C         141.6977  142.0339  170.5225 C.ar    1  UNL1        0.0001
     17 C         142.9978  142.6059  170.0406 C.ar    1  UNL1        0.0000
     18 C         143.4236  142.4051  168.6163 C.ar    1  UNL1        0.0001
     19 C         142.5492  141.6323  167.6740 C.ar    1  UNL1        0.0017
     20 C         141.2490  141.0602  168.1559 C.ar    1  UNL1        0.0224
     21 H         138.4658  138.8169  165.8635 H       1  UNL1        0.2923
     22 O         138.8838  138.2949  163.0994 O.3     1  UNL1       -0.4738
     23 C         138.0472  139.5119  162.8367 C.3     1  UNL1        0.2055
     24 C         138.6955  140.8612  162.7403 C.3     1  UNL1        0.0473
     25 C         137.9386  142.5264  164.5853 C.3     1  UNL1        0.0001
     26 C         137.9372  142.0886  163.1506 C.3     1  UNL1        0.0038
     27 O         143.8626  138.7012  164.5304 O.3     1  UNL1       -0.4738
     28 C         144.7311  139.9240  164.5134 C.3     1  UNL1        0.2055
     29 C         144.1098  141.2835  164.3883 C.3     1  UNL1        0.0473
     30 C         144.9722  142.5098  164.4386 C.3     1  UNL1        0.0038
     31 C         144.5888  143.6606  165.3210 C.3     1  UNL1        0.0001
@<TRIPOS>BOND
     1    25    26    1
     2    26    24    1
     3    24    23    1
     4    23    22    1
     5    22     1    1
     6     1     2   ar
     7     2     3   ar
     8     3     4    1
     9     3     5   ar
    10     5     6   ar
    11     6    27    1
    12    27    28    1
    13    28    29    1
    14    29    30    1
    15    30    31    1
    16     6     7   ar
    17     7     8    1
    18     8     9    2
    19     9    10    1
    20    10    11   ar
    21    11    12    1
    22    11    13   ar
    23    13    14   ar
    24    14    15   ar
    25    15    16   ar
    26    16    17   ar
    27    17    18   ar
    28    18    19   ar
    29    19    20   ar
    30     7     1   ar
    31    20    10   ar
    32    20    15   ar
    33    12    21    1
@<TRIPOS>MOLECULE
*****
 31 33 0 0 0
SMALL
GASTEIGER

@<TRIPOS>ATOM
      1 C         142.9552  140.6926  161.4475 C.ar    1  UNL1        0.1616
      2 C         143.6720  141.3679  160.3161 C.ar    1  UNL1        0.0501
      3 C         142.9672  142.4072  159.4956 C.ar    1  UNL1        0.0638
      4 CL        143.6840  143.0826  158.3642 Cl      1  UNL1       -0.0820
      5 C         141.5456  142.7711  159.8065 C.ar    1  UNL1        0.0501
      6 C         140.8288  142.0958  160.9380 C.ar    1  UNL1        0.1616
      7 C         141.5336  141.0565  161.7584 C.ar    1  UNL1        0.1703
      8 N         140.8168  140.3812  162.8899 N.2     1  UNL1       -0.1417
      9 N         140.4933  141.1487  164.1373 N.2     1  UNL1       -0.1447
     10 C         139.7765  140.4733  165.2687 C.ar    1  UNL1        0.1363
     11 C         138.7102  139.4582  164.9816 C.ar    1  UNL1        0.1529
     12 O         138.3606  139.1184  163.5630 O.3     1  UNL1       -0.5039
     13 C         137.9934  138.7828  166.1130 C.ar    1  UNL1        0.0382
     14 C         138.3429  139.1226  167.5316 C.ar    1  UNL1        0.0032
     15 C         139.4093  140.1378  167.8188 C.ar    1  UNL1        0.0017
     16 C         139.7588  140.4775  169.2373 C.ar    1  UNL1        0.0001
     17 C         140.8251  141.4926  169.5245 C.ar    1  UNL1        0.0000
     18 C         141.5419  142.1680  168.3931 C.ar    1  UNL1        0.0001
     19 C         141.1924  141.8282  166.9745 C.ar    1  UNL1        0.0017
     20 C         140.1261  140.8131  166.6874 C.ar    1  UNL1        0.0224
     21 H         138.8084  139.5402  162.8562 H       1  UNL1        0.2923
     22 O         143.6600  139.6533  162.2680 O.3     1  UNL1       -0.4738
     23 C         144.4803  140.0641  163.4547 C.3     1  UNL1        0.2055
     24 C         143.8514  140.1290  164.8150 C.3     1  UNL1        0.0473
     25 C         143.7620  138.1656  166.5141 C.3     1  UNL1        0.0001
     26 C         143.1507  138.9269  165.3754 C.3     1  UNL1        0.0038
     27 O         139.4072  142.4597  161.2489 O.3     1  UNL1       -0.4738
     28 C         139.1104  143.6216  162.1498 C.3     1  UNL1        0.2055
     29 C         137.8851  143.6059  163.0150 C.3     1  UNL1        0.0473
     30 C         138.0192  143.6873  164.5068 C.3     1  UNL1        0.0038
     31 C         138.8756  144.7518  165.1258 C.3     1  UNL1        0.0001
@<TRIPOS>BOND
     1    25    26    1
     2    26    24    1
     3    24    23    1
     4    23    22    1
     5    22     1    1
     6     1     2   ar
     7     2     3   ar
     8     3     4    1
     9     3     5   ar
    10     5     6   ar
    11     6    27    1
    12    27    28    1
    13    28    29    1
    14    29    30    1
    15    30    31    1
    16     6     7   ar
    17     7     8    1
    18     8     9    2
    19     9    10    1
    20    10    11   ar
    21    11    12    1
    22    11    13   ar
    23    13    14   ar
    24    14    15   ar
    25    15    16   ar
    26    16    17   ar
    27    17    18   ar
    28    18    19   ar
    29    19    20   ar
    30     7     1   ar
    31    20    10   ar
    32    20    15   ar
    33    12    21    1
@<TRIPOS>MOLECULE
*****
 31 33 0 0 0
SMALL
GASTEIGER

@<TRIPOS>ATOM
      1 C         140.0663  142.1501  161.3611 C.ar    1  UNL1        0.1616
      2 C         139.8038  143.0017  160.1545 C.ar    1  UNL1        0.0501
      3 C         140.9494  143.6205  159.4097 C.ar    1  UNL1        0.0638
      4 CL        140.6869  144.4721  158.2031 Cl      1  UNL1       -0.0820
      5 C         142.3574  143.3879  159.8716 C.ar    1  UNL1        0.0501
      6 C         142.6199  142.5363  161.0782 C.ar    1  UNL1        0.1616
      7 C         141.4744  141.9174  161.8230 C.ar    1  UNL1        0.1703
      8 N         141.7369  141.0659  163.0296 N.2     1  UNL1       -0.1417
      9 N         141.9600  141.7081  164.3666 N.2     1  UNL1       -0.1447
     10 C         142.2225  140.8565  165.5733 C.ar    1  UNL1        0.1363
     11 C         142.9982  139.5800  165.4360 C.ar    1  UNL1        0.1529
     12 O         143.5114  139.1550  164.0921 O.3     1  UNL1       -0.5039
     13 C         143.2606  138.7285  166.6426 C.ar    1  UNL1        0.0382
     14 C         142.7475  139.1534  167.9865 C.ar    1  UNL1        0.0032
     15 C         141.9718  140.4299  168.1238 C.ar    1  UNL1        0.0017
     16 C         141.4586  140.8549  169.4677 C.ar    1  UNL1        0.0001
     17 C         140.6830  142.1314  169.6049 C.ar    1  UNL1        0.0000
     18 C         140.4205  142.9829  168.3983 C.ar    1  UNL1        0.0001
     19 C         140.9336  142.5580  167.0544 C.ar    1  UNL1        0.0017
     20 C         141.7093  141.2815  166.9172 C.ar    1  UNL1        0.0224
     21 H         143.3474  139.6870  163.3383 H       1  UNL1        0.2923
     22 O         138.9208  141.5312  162.1059 O.3     1  UNL1       -0.4738
     23 C         137.7639  142.3803  162.5426 C.3     1  UNL1        0.2055
     24 C         138.0117  143.6708  163.2660 C.3     1  UNL1        0.0473
     25 C         138.5576  144.9371  165.4679 C.3     1  UNL1        0.0001
     26 C         138.1545  143.6781  164.7592 C.3     1  UNL1        0.0038
     27 O         144.0280  142.3036  161.5400 O.3     1  UNL1       -0.4738
     28 C         144.6265  143.1854  162.5955 C.3     1  UNL1        0.2055
     29 C         144.1202  144.5854  162.7787 C.3     1  UNL1        0.0473
     30 C         143.2429  144.9186  163.9489 C.3     1  UNL1        0.0038
     31 C         141.8285  145.3640  163.7231 C.3     1  UNL1        0.0001
@<TRIPOS>BOND
     1    25    26    1
     2    26    24    1
     3    24    23    1
     4    23    22    1
     5    22     1    1
     6     1     2   ar
     7     2     3   ar
     8     3     4    1
     9     3     5   ar
    10     5     6   ar
    11     6    27    1
    12    27    28    1
    13    28    29    1
    14    29    30    1
    15    30    31    1
    16     6     7   ar
    17     7     8    1
    18     8     9    2
    19     9    10    1
    20    10    11   ar
    21    11    12    1
    22    11    13   ar
    23    13    14   ar
    24    14    15   ar
    25    15    16   ar
    26    16    17   ar
    27    17    18   ar
    28    18    19   ar
    29    19    20   ar
    30     7     1   ar
    31    20    10   ar
    32    20    15   ar
    33    12    21    1
@<TRIPOS>MOLECULE
*****
 31 33 0 0 0
SMALL
GASTEIGER

@<TRIPOS>ATOM
      1 C         141.7541  141.5207  160.7416 C.ar    1  UNL1        0.1616
      2 C         142.4646  142.1931  159.6044 C.ar    1  UNL1        0.0501
      3 C         142.0003  143.5339  159.1177 C.ar    1  UNL1        0.0638
      4 CL        142.7109  144.2062  157.9806 Cl      1  UNL1       -0.0820
      5 C         140.8255  144.2022  159.7681 C.ar    1  UNL1        0.0501
      6 C         140.1150  143.5299  160.9053 C.ar    1  UNL1        0.1616
      7 C         140.5792  142.1892  161.3920 C.ar    1  UNL1        0.1703
      8 N         139.8687  141.5169  162.5291 N.2     1  UNL1       -0.1417
      9 N         140.5803  141.2921  163.8303 N.2     1  UNL1       -0.1447
     10 C         139.8698  140.6198  164.9674 C.ar    1  UNL1        0.1363
     11 C         138.8140  139.5914  164.6889 C.ar    1  UNL1        0.1529
     12 O         138.4687  139.2352  163.2733 O.3     1  UNL1       -0.5039
     13 C         138.1034  138.9190  165.8261 C.ar    1  UNL1        0.0382
     14 C         138.4487  139.2751  167.2417 C.ar    1  UNL1        0.0032
     15 C         139.5045  140.3036  167.5202 C.ar    1  UNL1        0.0017
     16 C         139.8498  140.6597  168.9358 C.ar    1  UNL1        0.0001
     17 C         140.9056  141.6881  169.2142 C.ar    1  UNL1        0.0000
     18 C         141.6162  142.3604  168.0771 C.ar    1  UNL1        0.0001
     19 C         141.2709  142.0043  166.6615 C.ar    1  UNL1        0.0017
     20 C         140.2151  140.9759  166.3831 C.ar    1  UNL1        0.0224
     21 H         138.9125  139.6552  162.5629 H       1  UNL1        0.2923
     22 O         142.2183  140.1800  161.2283 O.3     1  UNL1       -0.4738
     23 C         141.5071  138.9349  160.7881 C.3     1  UNL1        0.2055
     24 C         141.1267  137.8920  161.7969 C.3     1  UNL1        0.0473
     25 C         141.2443  137.0752  164.2604 C.3     1  UNL1        0.0001
     26 C         141.8538  137.8149  163.1066 C.3     1  UNL1        0.0038
     27 O         138.9401  144.1983  161.5557 O.3     1  UNL1       -0.4738
     28 C         139.1604  145.2669  162.5850 C.3     1  UNL1        0.2055
     29 C         139.7797  144.9193  163.9062 C.3     1  UNL1        0.0473
     30 C         138.9108  144.4998  165.0547 C.3     1  UNL1        0.0038
     31 C         137.7670  143.5571  164.8246 C.3     1  UNL1        0.0001
@<TRIPOS>BOND
     1    25    26    1
     2    26    24    1
     3    24    23    1
     4    23    22    1
     5    22     1    1
     6     1     2   ar
     7     2     3   ar
     8     3     4    1
     9     3     5   ar
    10     5     6   ar
    11     6    27    1
    12    27    28    1
    13    28    29    1
    14    29    30    1
    15    30    31    1
    16     6     7   ar
    17     7     8    1
    18     8     9    2
    19     9    10    1
    20    10    11   ar
    21    11    12    1
    22    11    13   ar
    23    13    14   ar
    24    14    15   ar
    25    15    16   ar
    26    16    17   ar
    27    17    18   ar
    28    18    19   ar
    29    19    20   ar
    30     7     1   ar
    31    20    10   ar
    32    20    15   ar
    33    12    21    1
@<TRIPOS>MOLECULE
*****
 31 33 0 0 0
SMALL
GASTEIGER

@<TRIPOS>ATOM
      1 C         142.2006  142.3768  161.3843 C.ar    1  UNL1        0.1616
      2 C         141.8833  143.1530  160.1405 C.ar    1  UNL1        0.0501
      3 C         140.4611  143.2879  159.6830 C.ar    1  UNL1        0.0638
      4 CL        140.1438  144.0640  158.4393 Cl      1  UNL1       -0.0820
      5 C         139.3563  142.6466  160.4692 C.ar    1  UNL1        0.0501
      6 C         139.6736  141.8704  161.7130 C.ar    1  UNL1        0.1616
      7 C         141.0957  141.7355  162.1705 C.ar    1  UNL1        0.1703
      8 N         141.4130  140.9594  163.4142 N.2     1  UNL1       -0.1417
      9 N         141.6627  141.6809  164.7053 N.2     1  UNL1       -0.1447
     10 C         141.9800  140.9047  165.9491 C.ar    1  UNL1        0.1363
     11 C         142.7583  139.6258  165.8569 C.ar    1  UNL1        0.1529
     12 O         143.2193  139.1230  164.5210 O.3     1  UNL1       -0.5039
     13 C         143.0756  138.8496  167.1007 C.ar    1  UNL1        0.0382
     14 C         142.6146  139.3524  168.4365 C.ar    1  UNL1        0.0032
     15 C         141.8362  140.6314  168.5288 C.ar    1  UNL1        0.0017
     16 C         141.3752  141.1341  169.8647 C.ar    1  UNL1        0.0001
     17 C         140.5969  142.4130  169.9568 C.ar    1  UNL1        0.0000
     18 C         140.2796  143.1892  168.7131 C.ar    1  UNL1        0.0001
     19 C         140.7406  142.6865  167.3772 C.ar    1  UNL1        0.0017
     20 C         141.5189  141.4075  167.2850 C.ar    1  UNL1        0.0224
     21 H         143.0211  139.6078  163.7440 H       1  UNL1        0.2923
     22 O         143.6227  142.2420  161.8418 O.3     1  UNL1       -0.4738
     23 C         144.4163  143.4650  162.1944 C.3     1  UNL1        0.2055
     24 C         143.7748  144.5777  162.9694 C.3     1  UNL1        0.0473
     25 C         144.6054  143.6376  165.2445 C.3     1  UNL1        0.0001
     26 C         143.6371  144.4717  164.4593 C.3     1  UNL1        0.0038
     27 O         138.5687  141.2291  162.4992 O.3     1  UNL1       -0.4738
     28 C         137.4342  142.0631  163.0161 C.3     1  UNL1        0.2055
     29 C         137.6457  143.5194  163.3069 C.3     1  UNL1        0.0473
     30 C         138.1540  143.9497  164.6510 C.3     1  UNL1        0.0038
     31 C         139.3979  144.7818  164.7512 C.3     1  UNL1        0.0001
@<TRIPOS>BOND
     1    25    26    1
     2    26    24    1
     3    24    23    1
     4    23    22    1
     5    22     1    1
     6     1     2   ar
     7     2     3   ar
     8     3     4    1
     9     3     5   ar
    10     5     6   ar
    11     6    27    1
    12    27    28    1
    13    28    29    1
    14    29    30    1
    15    30    31    1
    16     6     7   ar
    17     7     8    1
    18     8     9    2
    19     9    10    1
    20    10    11   ar
    21    11    12    1
    22    11    13   ar
    23    13    14   ar
    24    14    15   ar
    25    15    16   ar
    26    16    17   ar
    27    17    18   ar
    28    18    19   ar
    29    19    20   ar
    30     7     1   ar
    31    20    10   ar
    32    20    15   ar
    33    12    21    1
@<TRIPOS>MOLECULE
*****
 31 33 0 0 0
SMALL
GASTEIGER

@<TRIPOS>ATOM
      1 C         140.0937  142.6871  160.7642 C.ar    1  UNL1        0.1616
      2 C         140.0570  142.7467  159.2658 C.ar    1  UNL1        0.0501
      3 C         141.2872  143.1350  158.5003 C.ar    1  UNL1        0.0638
      4 CL        141.2506  143.1947  157.0020 Cl      1  UNL1       -0.0820
      5 C         142.5540  143.4637  159.2332 C.ar    1  UNL1        0.0501
      6 C         142.5907  143.4040  160.7316 C.ar    1  UNL1        0.1616
      7 C         141.3606  143.0158  161.4971 C.ar    1  UNL1        0.1703
      8 N         141.3972  142.9561  162.9954 N.2     1  UNL1       -0.1417
      9 N         141.3156  141.6321  163.6955 N.2     1  UNL1       -0.1447
     10 C         141.3523  141.5725  165.1939 C.ar    1  UNL1        0.1363
     11 C         142.4214  142.3063  165.9478 C.ar    1  UNL1        0.1529
     12 O         143.4539  143.0999  165.2033 O.3     1  UNL1       -0.5039
     13 C         142.4580  142.2467  167.4461 C.ar    1  UNL1        0.0382
     14 C         141.4256  141.4532  168.1906 C.ar    1  UNL1        0.0032
     15 C         140.3564  140.7192  167.4368 C.ar    1  UNL1        0.0017
     16 C         139.3239  139.9257  168.1813 C.ar    1  UNL1        0.0001
     17 C         138.2548  139.1919  167.4274 C.ar    1  UNL1        0.0000
     18 C         138.2182  139.2515  165.9290 C.ar    1  UNL1        0.0001
     19 C         139.2506  140.0450  165.1845 C.ar    1  UNL1        0.0017
     20 C         140.3197  140.7789  165.9384 C.ar    1  UNL1        0.0224
     21 H         143.4310  143.1372  164.2673 H       1  UNL1        0.2923
     22 O         138.8636  142.2988  161.5296 O.3     1  UNL1       -0.4738
     23 C         138.0937  143.3381  162.2892 C.3     1  UNL1        0.2055
     24 C         137.5565  143.0250  163.6543 C.3     1  UNL1        0.0473
     25 C         139.1483  144.7848  164.7121 C.3     1  UNL1        0.0001
     26 C         137.9881  143.8422  164.8358 C.3     1  UNL1        0.0038
     27 O         143.8576  143.7327  161.4645 O.3     1  UNL1       -0.4738
     28 C         144.8934  142.6706  161.6852 C.3     1  UNL1        0.2055
     29 C         144.4752  141.2868  162.0853 C.3     1  UNL1        0.0473
     30 C         145.0209  140.6716  163.3399 C.3     1  UNL1        0.0038
     31 C         144.3338  139.4888  163.9555 C.3     1  UNL1        0.0001
@<TRIPOS>BOND
     1    25    26    1
     2    26    24    1
     3    24    23    1
     4    23    22    1
     5    22     1    1
     6     1     2   ar
     7     2     3   ar
     8     3     4    1
     9     3     5   ar
    10     5     6   ar
    11     6    27    1
    12    27    28    1
    13    28    29    1
    14    29    30    1
    15    30    31    1
    16     6     7   ar
    17     7     8    1
    18     8     9    2
    19     9    10    1
    20    10    11   ar
    21    11    12    1
    22    11    13   ar
    23    13    14   ar
    24    14    15   ar
    25    15    16   ar
    26    16    17   ar
    27    17    18   ar
    28    18    19   ar
    29    19    20   ar
    30     7     1   ar
    31    20    10   ar
    32    20    15   ar
    33    12    21    1
