@<TRIPOS>MOLECULE
*****
 38 43 0 0 0
SMALL
GASTEIGER

@<TRIPOS>ATOM
      1 N         142.0642  139.2704  165.6126 N.3     1  UNL1       -0.2703
      2 C         141.3138  138.3667  164.6799 C.3     1  UNL1        0.0727
      3 C         141.7898  138.1825  163.2694 C.3     1  UNL1        0.0260
      4 C         143.0163  138.9019  162.7918 C.3     1  UNL1        0.0737
      5 C         143.7667  139.8056  163.7245 C.3     1  UNL1        0.0260
      6 C         143.2907  139.9899  165.1350 C.3     1  UNL1        0.0727
      7 C         144.2195  139.5518  162.1753 C.3     1  UNL1        0.0306
      8 C         144.3196  139.0869  160.7526 C.3     1  UNL1        0.1001
      9 N         143.1781  138.1498  160.4898 N.am    1  UNL1       -0.2425
     10 C         142.3727  138.0354  161.7500 C.2     1  UNL1        0.2296
     11 O         141.1401  137.2011  161.9360 O.2     1  UNL1       -0.2745
     12 C         142.8924  137.4499  159.1943 C.ar    1  UNL1        0.1574
     13 C         142.1770  138.1740  158.0926 C.ar    1  UNL1        0.0414
     14 C         141.8912  137.4741  156.7970 C.ar    1  UNL1        0.0651
     15 C         142.3208  136.0500  156.6032 C.ar    1  UNL1        0.2765
     16 O         142.0351  135.3501  155.3076 O.2     1  UNL1       -0.2655
     17 N         143.0362  135.3258  157.7050 N.ar    1  UNL1       -0.2174
     18 N         143.3220  136.0258  159.0005 N.ar    1  UNL1       -0.1514
     19 C         143.4658  133.9018  157.5112 C.3     1  UNL1        0.1084
     20 C         142.7339  132.8604  156.7176 C.3     1  UNL1        0.0245
     21 C         143.5185  131.5841  156.7929 C.3     1  UNL1        0.0021
     22 C         144.7351  131.8367  157.6330 C.3     1  UNL1        0.0021
     23 C         144.7026  133.2692  158.0770 C.3     1  UNL1        0.0245
     24 C         141.5882  139.4547  167.0232 C.3     1  UNL1        0.1063
     25 C         140.4701  140.4099  167.3186 C.3     1  UNL1        0.1483
     26 O         139.8353  140.4243  168.6776 O.3     1  UNL1       -0.3786
     27 H         139.1348  141.0948  168.7002 H       1  UNL1        0.2108
     28 C         138.1776  139.6245  165.5501 C.3     1  UNL1        0.0306
     29 C         138.8405  140.9581  165.3708 C.ar    1  UNL1       -0.0238
     30 C         139.9867  141.3508  166.2551 C.ar    1  UNL1        0.0015
     31 C         140.6495  142.6844  166.0758 C.ar    1  UNL1       -0.0020
     32 C         140.1661  143.6253  165.0123 C.ar    1  UNL1        0.0060
     33 C         139.0199  143.2325  164.1281 C.ar    1  UNL1        0.0748
     34 C         138.3571  141.8989  164.3073 C.ar    1  UNL1        0.0233
     35 C         137.2575  141.7878  163.2932 C.3     1  UNL1        0.2352
     36 O         137.2406  143.0527  162.4872 O.3     1  UNL1       -0.4404
     37 C         138.3299  143.9456  163.0031 C.2     1  UNL1        0.3413
     38 O         138.6696  145.3117  162.4851 O.2     1  UNL1       -0.2449
@<TRIPOS>BOND
     1    28    29    1
     2    29    30   ar
     3    30    25    1
     4    25    26    1
     5    25    24    1
     6    24     1    1
     7     1     2    1
     8     2     3    1
     9     3     4    1
    10     4     5    1
    11     5     6    1
    12     4     7    1
    13     7     8    1
    14     8     9    1
    15     9    12    1
    16    12    13   ar
    17    13    14   ar
    18    14    15   ar
    19    15    16    2
    20    15    17   ar
    21    17    19    1
    22    19    20    1
    23    20    21    1
    24    21    22    1
    25    22    23    1
    26    17    18   ar
    27     9    10   am
    28    10    11    2
    29    30    31   ar
    30    31    32   ar
    31    32    33   ar
    32    33    34   ar
    33    34    35    1
    34    35    36    1
    35    36    37    1
    36    37    38    2
    37    34    29   ar
    38     6     1    1
    39    18    12   ar
    40    37    33    1
    41    10     4    1
    42    23    19    1
    43    26    27    1
@<TRIPOS>MOLECULE
*****
 38 43 0 0 0
SMALL
GASTEIGER

@<TRIPOS>ATOM
      1 N         139.8628  137.8058  164.1957 N.3     1  UNL1       -0.2703
      2 C         139.4122  137.8781  162.7668 C.3     1  UNL1        0.0727
      3 C         140.4181  138.0796  161.6725 C.3     1  UNL1        0.0260
      4 C         141.8746  138.2087  162.0071 C.3     1  UNL1        0.0737
      5 C         142.3252  138.1364  163.4360 C.3     1  UNL1        0.0260
      6 C         141.3193  137.9350  164.5303 C.3     1  UNL1        0.0727
      7 C         143.3567  138.3537  162.1876 C.3     1  UNL1        0.0306
      8 C         143.9732  138.5352  160.8322 C.3     1  UNL1        0.1001
      9 N         142.8721  138.5023  159.8140 N.am    1  UNL1       -0.2425
     10 C         141.5752  138.3006  160.5401 C.2     1  UNL1        0.2296
     11 O         140.2172  138.2071  159.9100 O.2     1  UNL1       -0.2745
     12 C         143.0387  138.6460  158.3303 C.ar    1  UNL1        0.1574
     13 C         143.5629  139.9283  157.7551 C.ar    1  UNL1        0.0414
     14 C         143.7296  140.0720  156.2714 C.ar    1  UNL1        0.0651
     15 C         143.3720  138.9334  155.3627 C.ar    1  UNL1        0.2765
     16 O         143.5386  139.0771  153.8789 O.2     1  UNL1       -0.2655
     17 N         142.8477  137.6510  155.9379 N.ar    1  UNL1       -0.2174
     18 N         142.6811  137.5074  157.4217 N.ar    1  UNL1       -0.1514
     19 C         142.4902  136.5123  155.0292 C.3     1  UNL1        0.1084
     20 C         143.1604  135.1709  154.9910 C.3     1  UNL1        0.0245
     21 C         142.4840  134.3448  153.9374 C.3     1  UNL1        0.0021
     22 C         141.3958  135.1755  153.3246 C.3     1  UNL1        0.0021
     23 C         141.3996  136.5152  153.9993 C.3     1  UNL1        0.0245
     24 C         138.8568  137.6044  165.2900 C.3     1  UNL1        0.1063
     25 C         138.1387  138.7841  165.8751 C.3     1  UNL1        0.1483
     26 O         137.2772  138.6104  167.0907 O.3     1  UNL1       -0.3786
     27 H         136.8891  139.4647  167.3367 H       1  UNL1        0.2108
     28 C         140.0748  140.7723  167.0147 C.3     1  UNL1        0.0306
     29 C         139.2501  141.1317  165.8144 C.ar    1  UNL1       -0.0238
     30 C         138.2820  140.1377  165.2446 C.ar    1  UNL1        0.0015
     31 C         137.4573  140.4971  164.0444 C.ar    1  UNL1       -0.0020
     32 C         137.6006  141.8506  163.4139 C.ar    1  UNL1        0.0060
     33 C         138.5687  142.8446  163.9837 C.ar    1  UNL1        0.0748
     34 C         139.3934  142.4852  165.1840 C.ar    1  UNL1        0.0233
     35 C         140.2585  143.6632  165.5215 C.3     1  UNL1        0.2352
     36 O         139.9685  144.7506  164.5299 O.3     1  UNL1       -0.4404
     37 C         138.9241  144.2447  163.5795 C.2     1  UNL1        0.3413
     38 O         138.3380  145.0053  162.4271 O.2     1  UNL1       -0.2449
@<TRIPOS>BOND
     1    28    29    1
     2    29    30   ar
     3    30    25    1
     4    25    26    1
     5    25    24    1
     6    24     1    1
     7     1     2    1
     8     2     3    1
     9     3     4    1
    10     4     5    1
    11     5     6    1
    12     4     7    1
    13     7     8    1
    14     8     9    1
    15     9    12    1
    16    12    13   ar
    17    13    14   ar
    18    14    15   ar
    19    15    16    2
    20    15    17   ar
    21    17    19    1
    22    19    20    1
    23    20    21    1
    24    21    22    1
    25    22    23    1
    26    17    18   ar
    27     9    10   am
    28    10    11    2
    29    30    31   ar
    30    31    32   ar
    31    32    33   ar
    32    33    34   ar
    33    34    35    1
    34    35    36    1
    35    36    37    1
    36    37    38    2
    37    34    29   ar
    38     6     1    1
    39    18    12   ar
    40    37    33    1
    41    10     4    1
    42    23    19    1
    43    26    27    1
@<TRIPOS>MOLECULE
*****
 38 43 0 0 0
SMALL
GASTEIGER

@<TRIPOS>ATOM
      1 N         144.5245  141.4839  162.3553 N.3     1  UNL1       -0.2703
      2 C         144.1893  140.0275  162.2275 C.3     1  UNL1        0.0727
      3 C         143.7743  139.4672  160.8994 C.3     1  UNL1        0.0260
      4 C         143.6945  140.3633  159.6992 C.3     1  UNL1        0.0737
      5 C         144.0296  141.8198  159.8270 C.3     1  UNL1        0.0260
      6 C         144.4446  142.3801  161.1551 C.3     1  UNL1        0.0727
      7 C         143.5698  141.1328  158.4177 C.3     1  UNL1        0.0306
      8 C         143.1295  140.1801  157.3458 C.3     1  UNL1        0.1001
      9 N         142.9821  138.8218  157.9650 N.am    1  UNL1       -0.2425
     10 C         143.3313  138.9350  159.4194 C.2     1  UNL1        0.2296
     11 O         143.3194  137.8164  160.4187 O.2     1  UNL1       -0.2745
     12 C         142.5598  137.5702  157.2546 C.ar    1  UNL1        0.1574
     13 C         141.3174  137.5677  156.4140 C.ar    1  UNL1        0.0414
     14 C         140.8950  136.3160  155.7035 C.ar    1  UNL1        0.0651
     15 C         141.7150  135.0667  155.8336 C.ar    1  UNL1        0.2765
     16 O         141.2926  133.8150  155.1231 O.2     1  UNL1       -0.2655
     17 N         142.9574  135.0691  156.6742 N.ar    1  UNL1       -0.2174
     18 N         143.3797  136.3209  157.3846 N.ar    1  UNL1       -0.1514
     19 C         143.7774  133.8198  156.8042 C.3     1  UNL1        0.1084
     20 C         144.4304  133.3205  158.0590 C.3     1  UNL1        0.0245
     21 C         145.1449  132.0426  157.7325 C.3     1  UNL1        0.0021
     22 C         144.9336  131.7522  156.2762 C.3     1  UNL1        0.0021
     23 C         144.0884  132.8506  155.7024 C.3     1  UNL1        0.0245
     24 C         144.9395  142.0443  163.6834 C.3     1  UNL1        0.1063
     25 C         143.9158  142.6596  164.5908 C.3     1  UNL1        0.1483
     26 O         144.3389  143.2708  165.8936 O.3     1  UNL1       -0.3786
     27 H         143.5605  143.6206  166.3546 H       1  UNL1        0.2108
     28 C         142.6762  145.1477  163.4625 C.3     1  UNL1        0.0306
     29 C         141.8490  143.9078  163.6312 C.ar    1  UNL1       -0.0238
     30 C         142.4688  142.6638  164.1953 C.ar    1  UNL1        0.0015
     31 C         141.6416  141.4239  164.3641 C.ar    1  UNL1       -0.0020
     32 C         140.1947  141.4280  163.9687 C.ar    1  UNL1        0.0060
     33 C         139.5750  142.6720  163.4045 C.ar    1  UNL1        0.0748
     34 C         140.4021  143.9119  163.2358 C.ar    1  UNL1        0.0233
     35 C         139.5229  144.9804  162.6568 C.3     1  UNL1        0.2352
     36 O         138.1523  144.4009  162.4676 O.3     1  UNL1       -0.4404
     37 C         138.1845  142.9742  162.9298 C.2     1  UNL1        0.3413
     38 O         137.0292  142.0176  162.9190 O.2     1  UNL1       -0.2449
@<TRIPOS>BOND
     1    28    29    1
     2    29    30   ar
     3    30    25    1
     4    25    26    1
     5    25    24    1
     6    24     1    1
     7     1     2    1
     8     2     3    1
     9     3     4    1
    10     4     5    1
    11     5     6    1
    12     4     7    1
    13     7     8    1
    14     8     9    1
    15     9    12    1
    16    12    13   ar
    17    13    14   ar
    18    14    15   ar
    19    15    16    2
    20    15    17   ar
    21    17    19    1
    22    19    20    1
    23    20    21    1
    24    21    22    1
    25    22    23    1
    26    17    18   ar
    27     9    10   am
    28    10    11    2
    29    30    31   ar
    30    31    32   ar
    31    32    33   ar
    32    33    34   ar
    33    34    35    1
    34    35    36    1
    35    36    37    1
    36    37    38    2
    37    34    29   ar
    38     6     1    1
    39    18    12   ar
    40    37    33    1
    41    10     4    1
    42    23    19    1
    43    26    27    1
@<TRIPOS>MOLECULE
*****
 38 43 0 0 0
SMALL
GASTEIGER

@<TRIPOS>ATOM
      1 N         143.0303  138.5122  158.2450 N.3     1  UNL1       -0.2703
      2 C         142.6350  137.7383  159.4676 C.3     1  UNL1        0.0727
      3 C         142.8345  138.3345  160.8295 C.3     1  UNL1        0.0260
      4 C         143.4292  139.7045  160.9687 C.3     1  UNL1        0.0737
      5 C         143.8244  140.4783  159.7461 C.3     1  UNL1        0.0260
      6 C         143.6250  139.8822  158.3842 C.3     1  UNL1        0.0727
      7 C         144.0088  141.0563  161.2632 C.3     1  UNL1        0.0306
      8 C         144.0219  141.2408  162.7519 C.3     1  UNL1        0.1001
      9 N         143.4503  140.0029  163.3774 N.am    1  UNL1       -0.2425
     10 C         143.0840  139.0535  162.2754 C.2     1  UNL1        0.2296
     11 O         142.4788  137.6921  162.4493 O.2     1  UNL1       -0.2745
     12 C         143.2757  139.7577  164.8467 C.ar    1  UNL1        0.1574
     13 C         143.6794  138.4407  165.4405 C.ar    1  UNL1        0.0414
     14 C         143.5048  138.1954  166.9100 C.ar    1  UNL1        0.0651
     15 C         142.9265  139.2671  167.7857 C.ar    1  UNL1        0.2765
     16 O         142.7519  139.0219  169.2552 O.2     1  UNL1       -0.2655
     17 N         142.5228  140.5842  167.1920 N.ar    1  UNL1       -0.2174
     18 N         142.6975  140.8294  165.7225 N.ar    1  UNL1       -0.1514
     19 C         141.9445  141.6560  168.0678 C.3     1  UNL1        0.1084
     20 C         140.5693  142.2434  167.9508 C.3     1  UNL1        0.0245
     21 C         140.4148  143.2789  169.0250 C.3     1  UNL1        0.0021
     22 C         141.6944  143.3314  169.8058 C.3     1  UNL1        0.0021
     23 C         142.6399  142.3284  169.2142 C.3     1  UNL1        0.0245
     24 C         142.8308  137.9161  156.8830 C.3     1  UNL1        0.1063
     25 C         141.9343  136.7261  156.7091 C.3     1  UNL1        0.1483
     26 O         140.4488  136.8792  156.8506 O.3     1  UNL1       -0.3786
     27 H         140.0204  136.0206  156.7089 H       1  UNL1        0.2108
     28 C         141.3209  135.3969  154.0905 C.3     1  UNL1        0.0306
     29 C         142.2165  134.7185  155.0843 C.ar    1  UNL1       -0.0238
     30 C         142.5232  135.3831  156.3936 C.ar    1  UNL1        0.0015
     31 C         143.4188  134.7047  157.3874 C.ar    1  UNL1       -0.0020
     32 C         144.0077  133.3617  157.0719 C.ar    1  UNL1        0.0060
     33 C         143.7010  132.6971  155.7627 C.ar    1  UNL1        0.0748
     34 C         142.8054  133.3755  154.7689 C.ar    1  UNL1        0.0233
     35 C         142.6836  132.4828  153.5696 C.3     1  UNL1        0.2352
     36 O         143.5039  131.2526  153.8222 O.3     1  UNL1       -0.4404
     37 C         144.1326  131.3851  155.1776 C.2     1  UNL1        0.3413
     38 O         145.0348  130.3817  155.8330 O.2     1  UNL1       -0.2449
@<TRIPOS>BOND
     1    28    29    1
     2    29    30   ar
     3    30    25    1
     4    25    26    1
     5    25    24    1
     6    24     1    1
     7     1     2    1
     8     2     3    1
     9     3     4    1
    10     4     5    1
    11     5     6    1
    12     4     7    1
    13     7     8    1
    14     8     9    1
    15     9    12    1
    16    12    13   ar
    17    13    14   ar
    18    14    15   ar
    19    15    16    2
    20    15    17   ar
    21    17    19    1
    22    19    20    1
    23    20    21    1
    24    21    22    1
    25    22    23    1
    26    17    18   ar
    27     9    10   am
    28    10    11    2
    29    30    31   ar
    30    31    32   ar
    31    32    33   ar
    32    33    34   ar
    33    34    35    1
    34    35    36    1
    35    36    37    1
    36    37    38    2
    37    34    29   ar
    38     6     1    1
    39    18    12   ar
    40    37    33    1
    41    10     4    1
    42    23    19    1
    43    26    27    1
@<TRIPOS>MOLECULE
*****
 38 43 0 0 0
SMALL
GASTEIGER

@<TRIPOS>ATOM
      1 N         143.5518  140.5149  163.6268 N.3     1  UNL1       -0.2703
      2 C         143.0601  139.1509  163.2424 C.3     1  UNL1        0.0727
      3 C         142.9670  138.7675  161.7953 C.3     1  UNL1        0.0260
      4 C         143.3655  139.7481  160.7324 C.3     1  UNL1        0.0737
      5 C         143.8571  141.1121  161.1168 C.3     1  UNL1        0.0260
      6 C         143.9503  141.4955  162.5639 C.3     1  UNL1        0.0727
      7 C         143.7265  140.6179  159.5649 C.3     1  UNL1        0.0306
      8 C         143.4791  139.8350  158.3095 C.3     1  UNL1        0.1001
      9 N         142.9651  138.4812  158.7013 N.am    1  UNL1       -0.2425
     10 C         142.8949  138.4276  160.1987 C.2     1  UNL1        0.2296
     11 O         142.4349  137.2587  161.0184 O.2     1  UNL1       -0.2745
     12 C         142.5876  137.3755  157.7608 C.ar    1  UNL1        0.1574
     13 C         141.4291  137.5502  156.8242 C.ar    1  UNL1        0.0414
     14 C         141.0517  136.4443  155.8836 C.ar    1  UNL1        0.0651
     15 C         141.8327  135.1637  155.8797 C.ar    1  UNL1        0.2765
     16 O         141.4552  134.0579  154.9391 O.2     1  UNL1       -0.2655
     17 N         142.9913  134.9889  156.8163 N.ar    1  UNL1       -0.2174
     18 N         143.3687  136.0949  157.7568 N.ar    1  UNL1       -0.1514
     19 C         143.7723  133.7083  156.8124 C.3     1  UNL1        0.1084
     20 C         143.9383  132.7805  155.6455 C.3     1  UNL1        0.0245
     21 C         144.7931  131.6295  156.0867 C.3     1  UNL1        0.0021
     22 C         145.1554  131.8459  157.5260 C.3     1  UNL1        0.0021
     23 C         144.5245  133.1308  157.9746 C.3     1  UNL1        0.0245
     24 C         143.6450  140.8983  165.0740 C.3     1  UNL1        0.1063
     25 C         142.6614  141.8689  165.6575 C.3     1  UNL1        0.1483
     26 O         142.5858  143.2701  165.1275 O.3     1  UNL1       -0.3786
     27 H         141.9037  143.7622  165.6107 H       1  UNL1        0.2108
     28 C         143.4521  142.3543  168.5105 C.3     1  UNL1        0.0306
     29 C         142.1487  141.6810  168.1976 C.ar    1  UNL1       -0.0238
     30 C         141.7534  141.4383  166.7712 C.ar    1  UNL1        0.0015
     31 C         140.4500  140.7650  166.4583 C.ar    1  UNL1       -0.0020
     32 C         139.5420  140.3343  167.5718 C.ar    1  UNL1        0.0060
     33 C         139.9373  140.5770  168.9983 C.ar    1  UNL1        0.0748
     34 C         141.2407  141.2503  169.3111 C.ar    1  UNL1        0.0233
     35 C         141.3619  141.3552  170.8026 C.3     1  UNL1        0.2352
     36 O         140.1335  140.7467  171.4114 O.3     1  UNL1       -0.4404
     37 C         139.2531  140.2658  170.2963 C.2     1  UNL1        0.3413
     38 O         137.9220  139.5919  170.4519 O.2     1  UNL1       -0.2449
@<TRIPOS>BOND
     1    28    29    1
     2    29    30   ar
     3    30    25    1
     4    25    26    1
     5    25    24    1
     6    24     1    1
     7     1     2    1
     8     2     3    1
     9     3     4    1
    10     4     5    1
    11     5     6    1
    12     4     7    1
    13     7     8    1
    14     8     9    1
    15     9    12    1
    16    12    13   ar
    17    13    14   ar
    18    14    15   ar
    19    15    16    2
    20    15    17   ar
    21    17    19    1
    22    19    20    1
    23    20    21    1
    24    21    22    1
    25    22    23    1
    26    17    18   ar
    27     9    10   am
    28    10    11    2
    29    30    31   ar
    30    31    32   ar
    31    32    33   ar
    32    33    34   ar
    33    34    35    1
    34    35    36    1
    35    36    37    1
    36    37    38    2
    37    34    29   ar
    38     6     1    1
    39    18    12   ar
    40    37    33    1
    41    10     4    1
    42    23    19    1
    43    26    27    1
@<TRIPOS>MOLECULE
*****
 38 43 0 0 0
SMALL
GASTEIGER

@<TRIPOS>ATOM
      1 N         144.9321  141.6101  163.1920 N.3     1  UNL1       -0.2703
      2 C         144.7212  141.8601  161.7281 C.3     1  UNL1        0.0727
      3 C         144.1721  140.7727  160.8530 C.3     1  UNL1        0.0260
      4 C         143.8337  139.4352  161.4419 C.3     1  UNL1        0.0737
      5 C         144.0445  139.1852  162.9057 C.3     1  UNL1        0.0260
      6 C         144.5937  140.2726  163.7808 C.3     1  UNL1        0.0727
      7 C         143.4513  138.0545  161.8863 C.3     1  UNL1        0.0306
      8 C         142.9517  137.3034  160.6877 C.3     1  UNL1        0.1001
      9 N         143.0254  138.2200  159.5026 N.am    1  UNL1       -0.2425
     10 C         143.5704  139.5375  159.9686 C.2     1  UNL1        0.2296
     11 O         143.8102  140.7452  159.1120 O.2     1  UNL1       -0.2745
     12 C         142.6244  137.8790  158.0980 C.ar    1  UNL1        0.1574
     13 C         142.1091  138.9509  157.1840 C.ar    1  UNL1        0.0414
     14 C         141.7080  138.6098  155.7793 C.ar    1  UNL1        0.0651
     15 C         141.8223  137.1969  155.2888 C.ar    1  UNL1        0.2765
     16 O         141.4213  136.8558  153.8842 O.2     1  UNL1       -0.2655
     17 N         142.3376  136.1249  156.2029 N.ar    1  UNL1       -0.2174
     18 N         142.7386  136.4661  157.6075 N.ar    1  UNL1       -0.1514
     19 C         142.4519  134.7120  155.7124 C.3     1  UNL1        0.1084
     20 C         141.3232  133.8561  155.2189 C.3     1  UNL1        0.0245
     21 C         141.8887  132.5221  154.8308 C.3     1  UNL1        0.0021
     22 C         143.3667  132.5535  155.0844 C.3     1  UNL1        0.0021
     23 C         143.7148  133.9070  155.6293 C.3     1  UNL1        0.0245
     24 C         145.4813  142.6976  164.0672 C.3     1  UNL1        0.1063
     25 C         144.5576  143.5014  164.9335 C.3     1  UNL1        0.1483
     26 O         145.0469  144.0574  166.2379 O.3     1  UNL1       -0.3786
     27 H         144.3298  144.5474  166.6698 H       1  UNL1        0.2108
     28 C         142.3127  141.9222  166.1444 C.3     1  UNL1        0.0306
     29 C         142.0221  142.9597  165.1009 C.ar    1  UNL1       -0.0238
     30 C         143.1445  143.7494  164.4954 C.ar    1  UNL1        0.0015
     31 C         142.8539  144.7869  163.4519 C.ar    1  UNL1       -0.0020
     32 C         141.4410  145.0349  163.0138 C.ar    1  UNL1        0.0060
     33 C         140.3186  144.2453  163.6192 C.ar    1  UNL1        0.0748
     34 C         140.6091  143.2077  164.6628 C.ar    1  UNL1        0.0233
     35 C         139.3067  142.5896  165.0772 C.3     1  UNL1        0.2352
     36 O         138.2112  143.2452  164.2897 O.3     1  UNL1       -0.4404
     37 C         138.8366  144.2684  163.3887 C.2     1  UNL1        0.3413
     38 O         138.1079  145.1586  162.4261 O.2     1  UNL1       -0.2449
@<TRIPOS>BOND
     1    28    29    1
     2    29    30   ar
     3    30    25    1
     4    25    26    1
     5    25    24    1
     6    24     1    1
     7     1     2    1
     8     2     3    1
     9     3     4    1
    10     4     5    1
    11     5     6    1
    12     4     7    1
    13     7     8    1
    14     8     9    1
    15     9    12    1
    16    12    13   ar
    17    13    14   ar
    18    14    15   ar
    19    15    16    2
    20    15    17   ar
    21    17    19    1
    22    19    20    1
    23    20    21    1
    24    21    22    1
    25    22    23    1
    26    17    18   ar
    27     9    10   am
    28    10    11    2
    29    30    31   ar
    30    31    32   ar
    31    32    33   ar
    32    33    34   ar
    33    34    35    1
    34    35    36    1
    35    36    37    1
    36    37    38    2
    37    34    29   ar
    38     6     1    1
    39    18    12   ar
    40    37    33    1
    41    10     4    1
    42    23    19    1
    43    26    27    1
@<TRIPOS>MOLECULE
*****
 38 43 0 0 0
SMALL
GASTEIGER

@<TRIPOS>ATOM
      1 N         139.8666  137.8695  163.9431 N.3     1  UNL1       -0.2703
      2 C         139.4575  137.9202  162.5009 C.3     1  UNL1        0.0727
      3 C         140.4915  138.1316  161.4350 C.3     1  UNL1        0.0260
      4 C         141.9346  138.2922  161.8114 C.3     1  UNL1        0.0737
      5 C         142.3437  138.2415  163.2536 C.3     1  UNL1        0.0260
      6 C         141.3097  138.0301  164.3194 C.3     1  UNL1        0.0727
      7 C         143.4076  138.4678  162.0343 C.3     1  UNL1        0.0306
      8 C         144.0606  138.6493  160.6960 C.3     1  UNL1        0.1001
      9 N         142.9911  138.5858  159.6461 N.am    1  UNL1       -0.2425
     10 C         141.6773  138.3652  160.3353 C.2     1  UNL1        0.2296
     11 O         140.3407  138.2396  159.6662 O.2     1  UNL1       -0.2745
     12 C         143.1991  138.7196  158.1667 C.ar    1  UNL1        0.1574
     13 C         142.6171  137.7006  157.2323 C.ar    1  UNL1        0.0414
     14 C         142.8250  137.8344  155.7528 C.ar    1  UNL1        0.0651
     15 C         143.6150  138.9871  155.2077 C.ar    1  UNL1        0.2765
     16 O         143.8230  139.1209  153.7282 O.2     1  UNL1       -0.2655
     17 N         144.1970  140.0061  156.1420 N.ar    1  UNL1       -0.2174
     18 N         143.9890  139.8723  157.6215 N.ar    1  UNL1       -0.1514
     19 C         144.9870  141.1588  155.5968 C.3     1  UNL1        0.1084
     20 C         146.4717  141.3414  155.7085 C.3     1  UNL1        0.0245
     21 C         146.8332  142.6268  155.0250 C.3     1  UNL1        0.0021
     22 C         145.5721  143.2385  154.4909 C.3     1  UNL1        0.0021
     23 C         144.4310  142.3313  154.8443 C.3     1  UNL1        0.0245
     24 C         138.8326  137.6581  165.0090 C.3     1  UNL1        0.1063
     25 C         138.2477  138.8358  165.7306 C.3     1  UNL1        0.1483
     26 O         137.5785  138.6445  167.0594 O.3     1  UNL1       -0.3786
     27 H         137.2580  139.4998  167.3861 H       1  UNL1        0.2108
     28 C         140.0922  140.8880  166.9080 C.3     1  UNL1        0.0306
     29 C         139.2542  141.2309  165.7121 C.ar    1  UNL1       -0.0238
     30 C         138.3319  140.2049  165.1234 C.ar    1  UNL1        0.0015
     31 C         137.4939  140.5478  163.9276 C.ar    1  UNL1       -0.0020
     32 C         137.5781  141.9168  163.3204 C.ar    1  UNL1        0.0060
     33 C         138.5004  142.9429  163.9091 C.ar    1  UNL1        0.0748
     34 C         139.3384  142.5999  165.1050 C.ar    1  UNL1        0.0233
     35 C         140.1500  143.8091  165.4643 C.3     1  UNL1        0.2352
     36 O         139.8136  144.8994  164.4906 O.3     1  UNL1       -0.4404
     37 C         138.7941  144.3640  163.5294 C.2     1  UNL1        0.3413
     38 O         138.1766  145.1175  162.3888 O.2     1  UNL1       -0.2449
@<TRIPOS>BOND
     1    28    29    1
     2    29    30   ar
     3    30    25    1
     4    25    26    1
     5    25    24    1
     6    24     1    1
     7     1     2    1
     8     2     3    1
     9     3     4    1
    10     4     5    1
    11     5     6    1
    12     4     7    1
    13     7     8    1
    14     8     9    1
    15     9    12    1
    16    12    13   ar
    17    13    14   ar
    18    14    15   ar
    19    15    16    2
    20    15    17   ar
    21    17    19    1
    22    19    20    1
    23    20    21    1
    24    21    22    1
    25    22    23    1
    26    17    18   ar
    27     9    10   am
    28    10    11    2
    29    30    31   ar
    30    31    32   ar
    31    32    33   ar
    32    33    34   ar
    33    34    35    1
    34    35    36    1
    35    36    37    1
    36    37    38    2
    37    34    29   ar
    38     6     1    1
    39    18    12   ar
    40    37    33    1
    41    10     4    1
    42    23    19    1
    43    26    27    1
@<TRIPOS>MOLECULE
*****
 38 43 0 0 0
SMALL
GASTEIGER

@<TRIPOS>ATOM
      1 N         141.4293  138.0913  158.0886 N.3     1  UNL1       -0.2703
      2 C         142.5062  138.0419  159.1316 C.3     1  UNL1        0.0727
      3 C         142.1683  138.2945  160.5710 C.3     1  UNL1        0.0260
      4 C         140.7535  138.5964  160.9674 C.3     1  UNL1        0.0737
      5 C         139.6766  138.6458  159.9244 C.3     1  UNL1        0.0260
      6 C         140.0145  138.3933  158.4850 C.3     1  UNL1        0.0727
      7 C         139.3910  138.9090  161.5115 C.3     1  UNL1        0.0306
      8 C         139.5141  139.0865  162.9959 C.3     1  UNL1        0.1001
      9 N         140.9528  138.8836  163.3692 N.am    1  UNL1       -0.2425
     10 C         141.7187  138.5808  162.1156 C.2     1  UNL1        0.2296
     11 O         143.1912  138.3098  162.0258 O.2     1  UNL1       -0.2745
     12 C         141.5249  138.9687  164.7531 C.ar    1  UNL1        0.1574
     13 C         142.7759  138.2151  165.0951 C.ar    1  UNL1        0.0414
     14 C         143.3481  138.3002  166.4791 C.ar    1  UNL1        0.0651
     15 C         142.6693  139.1389  167.5211 C.ar    1  UNL1        0.2765
     16 O         143.2415  139.2240  168.9051 O.2     1  UNL1       -0.2655
     17 N         141.4182  139.8926  167.1791 N.ar    1  UNL1       -0.2174
     18 N         140.8461  139.8074  165.7951 N.ar    1  UNL1       -0.1514
     19 C         140.7394  140.7313  168.2211 C.3     1  UNL1        0.1084
     20 C         140.9793  142.1907  168.4718 C.3     1  UNL1        0.0245
     21 C         140.0897  142.6192  169.6010 C.3     1  UNL1        0.0021
     22 C         139.3001  141.4248  170.0481 C.3     1  UNL1        0.0021
     23 C         139.7016  140.2580  169.1953 C.3     1  UNL1        0.0245
     24 C         141.7672  137.8388  156.6491 C.3     1  UNL1        0.1063
     25 C         142.9960  137.0554  156.2934 C.3     1  UNL1        0.1483
     26 O         144.2756  137.7707  155.9758 O.3     1  UNL1       -0.3786
     27 H         144.9660  137.1216  155.7687 H       1  UNL1        0.2108
     28 C         142.2191  135.6447  153.7623 C.3     1  UNL1        0.0306
     29 C         142.5566  134.8514  154.9898 C.ar    1  UNL1       -0.0238
     30 C         142.9451  135.5567  156.2553 C.ar    1  UNL1        0.0015
     31 C         143.2826  134.7634  157.4828 C.ar    1  UNL1       -0.0020
     32 C         143.2317  133.2648  157.4448 C.ar    1  UNL1        0.0060
     33 C         142.8433  132.5595  156.1793 C.ar    1  UNL1        0.0748
     34 C         142.5057  133.3528  154.9518 C.ar    1  UNL1        0.0233
     35 C         142.1602  132.3877  153.8567 C.3     1  UNL1        0.2352
     36 O         142.2842  130.9979  154.4073 O.3     1  UNL1       -0.4404
     37 C         142.7064  131.1041  155.8428 C.2     1  UNL1        0.3413
     38 O         142.9490  129.9564  156.7776 O.2     1  UNL1       -0.2449
@<TRIPOS>BOND
     1    28    29    1
     2    29    30   ar
     3    30    25    1
     4    25    26    1
     5    25    24    1
     6    24     1    1
     7     1     2    1
     8     2     3    1
     9     3     4    1
    10     4     5    1
    11     5     6    1
    12     4     7    1
    13     7     8    1
    14     8     9    1
    15     9    12    1
    16    12    13   ar
    17    13    14   ar
    18    14    15   ar
    19    15    16    2
    20    15    17   ar
    21    17    19    1
    22    19    20    1
    23    20    21    1
    24    21    22    1
    25    22    23    1
    26    17    18   ar
    27     9    10   am
    28    10    11    2
    29    30    31   ar
    30    31    32   ar
    31    32    33   ar
    32    33    34   ar
    33    34    35    1
    34    35    36    1
    35    36    37    1
    36    37    38    2
    37    34    29   ar
    38     6     1    1
    39    18    12   ar
    40    37    33    1
    41    10     4    1
    42    23    19    1
    43    26    27    1
@<TRIPOS>MOLECULE
*****
 38 43 0 0 0
SMALL
GASTEIGER

@<TRIPOS>ATOM
      1 N         142.7622  138.6539  157.8776 N.3     1  UNL1       -0.2703
      2 C         142.3624  137.8810  159.0993 C.3     1  UNL1        0.0727
      3 C         142.6441  138.4368  160.4638 C.3     1  UNL1        0.0260
      4 C         143.3257  139.7653  160.6064 C.3     1  UNL1        0.0737
      5 C         143.7255  140.5381  159.3847 C.3     1  UNL1        0.0260
      6 C         143.4438  139.9824  158.0202 C.3     1  UNL1        0.0727
      7 C         143.9964  141.0735  160.9044 C.3     1  UNL1        0.0306
      8 C         144.0715  141.2271  162.3947 C.3     1  UNL1        0.1001
      9 N         143.4471  140.0139  163.0178 N.am    1  UNL1       -0.2425
     10 C         142.9862  139.1104  161.9126 C.2     1  UNL1        0.2296
     11 O         142.3053  137.7849  162.0835 O.2     1  UNL1       -0.2745
     12 C         143.3080  139.7503  164.4878 C.ar    1  UNL1        0.1574
     13 C         143.7780  138.4476  165.0640 C.ar    1  UNL1        0.0414
     14 C         143.6390  138.1841  166.5341 C.ar    1  UNL1        0.0651
     15 C         143.0298  139.2232  167.4280 C.ar    1  UNL1        0.2765
     16 O         142.8908  138.9597  168.8981 O.2     1  UNL1       -0.2655
     17 N         142.5598  140.5260  166.8518 N.ar    1  UNL1       -0.2174
     18 N         142.6989  140.7895  165.3817 N.ar    1  UNL1       -0.1514
     19 C         141.9507  141.5652  167.7458 C.3     1  UNL1        0.1084
     20 C         142.6302  142.2459  168.8969 C.3     1  UNL1        0.0245
     21 C         141.6546  143.2075  169.5080 C.3     1  UNL1        0.0021
     22 C         140.3722  143.1211  168.7348 C.3     1  UNL1        0.0021
     23 C         140.5552  142.1061  167.6456 C.3     1  UNL1        0.0245
     24 C         142.4805  138.0981  156.5130 C.3     1  UNL1        0.1063
     25 C         143.4429  137.1365  155.8815 C.3     1  UNL1        0.1483
     26 O         144.9013  137.4783  155.8021 O.3     1  UNL1       -0.3786
     27 H         145.3798  136.7547  155.3683 H       1  UNL1        0.2108
     28 C         143.5423  134.6578  157.5686 C.3     1  UNL1        0.0306
     29 C         142.9967  134.5936  156.1728 C.ar    1  UNL1       -0.0238
     30 C         142.9470  135.8329  155.3292 C.ar    1  UNL1        0.0015
     31 C         142.4014  135.7688  153.9335 C.ar    1  UNL1       -0.0020
     32 C         141.9055  134.4653  153.3812 C.ar    1  UNL1        0.0060
     33 C         141.9552  133.2260  154.2247 C.ar    1  UNL1        0.0748
     34 C         142.5008  133.2902  155.6205 C.ar    1  UNL1        0.0233
     35 C         142.4243  131.9137  156.2118 C.3     1  UNL1        0.2352
     36 O         141.8315  130.9989  155.1814 O.3     1  UNL1       -0.4404
     37 C         141.5416  131.8099  153.9534 C.2     1  UNL1        0.3413
     38 O         140.9431  131.2953  152.6779 O.2     1  UNL1       -0.2449
@<TRIPOS>BOND
     1    28    29    1
     2    29    30   ar
     3    30    25    1
     4    25    26    1
     5    25    24    1
     6    24     1    1
     7     1     2    1
     8     2     3    1
     9     3     4    1
    10     4     5    1
    11     5     6    1
    12     4     7    1
    13     7     8    1
    14     8     9    1
    15     9    12    1
    16    12    13   ar
    17    13    14   ar
    18    14    15   ar
    19    15    16    2
    20    15    17   ar
    21    17    19    1
    22    19    20    1
    23    20    21    1
    24    21    22    1
    25    22    23    1
    26    17    18   ar
    27     9    10   am
    28    10    11    2
    29    30    31   ar
    30    31    32   ar
    31    32    33   ar
    32    33    34   ar
    33    34    35    1
    34    35    36    1
    35    36    37    1
    36    37    38    2
    37    34    29   ar
    38     6     1    1
    39    18    12   ar
    40    37    33    1
    41    10     4    1
    42    23    19    1
    43    26    27    1
