@<TRIPOS>MOLECULE
*****
 42 47 0 0 0
SMALL
GASTEIGER

@<TRIPOS>ATOM
      1 C         137.8580  143.0224  163.3483 C.3     1  UNL1        0.0932
      2 C         138.0292  142.8618  161.8668 C.3     1  UNL1        0.0286
      3 C         138.0199  141.4925  161.2547 C.3     1  UNL1        0.0193
      4 C         137.8393  140.2835  162.1242 C.3     1  UNL1        0.0700
      5 C         137.6680  140.4441  163.6057 C.3     1  UNL1        0.0193
      6 C         137.6774  141.8135  164.2178 C.3     1  UNL1        0.0286
      7 C         137.8376  141.0134  162.5052 C.3     1  UNL1        0.1562
      8 O         137.8460  142.2517  163.0586 O.3     1  UNL1       -0.3572
      9 N         137.8299  138.9141  161.5122 N.3     1  UNL1       -0.2926
     10 H         137.2361  138.9656  160.6844 H       1  UNL1        0.1236
     11 C         139.1175  138.2759  161.0823 C.3     1  UNL1        0.1152
     12 C         140.3332  138.3781  161.9549 C.ar    1  UNL1        0.0765
     13 C         140.4901  137.4626  163.1328 C.ar    1  UNL1        0.0193
     14 C         141.7059  137.5649  164.0054 C.ar    1  UNL1        0.0411
     15 C         142.7647  138.5826  163.7003 C.ar    1  UNL1        0.1708
     16 C         142.6078  139.4981  162.5225 C.ar    1  UNL1        0.1682
     17 N         141.3921  139.3959  161.6498 N.ar    1  UNL1       -0.2304
     18 N         143.6667  140.5158  162.2173 N.am    1  UNL1       -0.2639
     19 C         144.8824  140.6180  163.0899 C.2     1  UNL1        0.2718
     20 O         145.9412  141.6357  162.7847 O.2     1  UNL1       -0.2707
     21 C         145.0393  139.7025  164.2678 C.3     1  UNL1        0.2898
     22 O         143.9805  138.6848  164.5730 O.3     1  UNL1       -0.4628
     23 H         143.5637  141.1166  161.4442 H       1  UNL1        0.1565
     24 C         137.8674  144.3918  163.9603 C.3     1  UNL1        0.0320
     25 C         138.9875  144.7985  164.8713 C.3     1  UNL1        0.0327
     26 C         140.6140  141.5078  167.4744 C.ar    1  UNL1        0.2288
     27 N         140.0719  142.6047  166.6067 N.ar    1  UNL1       -0.2104
     28 C         140.9150  143.1758  165.5054 C.ar    1  UNL1        0.1001
     29 C         140.3728  144.2728  164.6377 C.ar    1  UNL1        0.0261
     30 C         141.2159  144.8439  163.5363 C.ar    1  UNL1        0.1566
     31 F         140.6738  145.9408  162.6687 F       1  UNL1       -0.2028
     32 C         142.6012  144.3181  163.3027 C.ar    1  UNL1        0.1281
     33 N         143.1434  143.2212  164.1704 N.ar    1  UNL1       -0.2400
     34 C         142.3002  142.6501  165.2717 C.ar    1  UNL1        0.0989
     35 C         142.8424  141.5532  166.1394 C.ar    1  UNL1        0.0292
     36 C         141.9993  140.9820  167.2407 C.ar    1  UNL1        0.1259
     37 C         142.5415  139.8851  168.1084 C.3     1  UNL1        0.4229
     38 F         143.0836  138.7882  168.9760 F       1  UNL1       -0.1657
     39 F         142.1437  138.8721  167.0762 F       1  UNL1       -0.1657
     40 F         142.9393  140.8981  169.1406 F       1  UNL1       -0.1657
     41 C         139.7217  141.6162  169.9120 C.3     1  UNL1        0.2542
     42 O         139.7709  140.9366  168.5757 O.3     1  UNL1       -0.4562
@<TRIPOS>BOND
     1    41    42    1
     2    42    26    1
     3    26    27   ar
     4    27    28   ar
     5    28    29   ar
     6    29    25    1
     7    25    24    1
     8    24     1    1
     9     1     2    1
    10     2     3    1
    11     3     4    1
    12     4     9    1
    13     9    11    1
    14    11    12    1
    15    12    13   ar
    16    13    14   ar
    17    14    15   ar
    18    15    16   ar
    19    16    17   ar
    20    16    18    1
    21    18    19   am
    22    19    20    2
    23    19    21    1
    24    21    22    1
    25     4     5    1
    26     5     6    1
    27     4     7    1
    28     7     8    1
    29    29    30   ar
    30    30    31    1
    31    30    32   ar
    32    32    33   ar
    33    33    34   ar
    34    34    35   ar
    35    35    36   ar
    36    36    37    1
    37    37    38    1
    38    37    39    1
    39    37    40    1
    40    36    26   ar
    41    34    28   ar
    42     6     1    1
    43     8     1    1
    44    17    12   ar
    45    22    15    1
    46     9    10    1
    47    18    23    1
@<TRIPOS>MOLECULE
*****
 42 47 0 0 0
SMALL
GASTEIGER

@<TRIPOS>ATOM
      1 C         144.5844  140.0367  163.5165 C.3     1  UNL1        0.0932
      2 C         143.8728  139.2182  164.5526 C.3     1  UNL1        0.0286
      3 C         142.7617  138.2958  164.1467 C.3     1  UNL1        0.0193
      4 C         142.3623  138.1919  162.7045 C.3     1  UNL1        0.0700
      5 C         143.0739  139.0104  161.6684 C.3     1  UNL1        0.0193
      6 C         144.1850  139.9328  162.0744 C.3     1  UNL1        0.0286
      7 C         142.9771  138.7112  162.8788 C.3     1  UNL1        0.1562
      8 O         143.9817  139.5452  163.2459 O.3     1  UNL1       -0.3572
      9 N         141.2512  137.2696  162.2986 N.3     1  UNL1       -0.2926
     10 H         141.0832  136.6458  163.0879 H       1  UNL1        0.1236
     11 C         139.9188  137.8308  161.8990 C.3     1  UNL1        0.1152
     12 C         139.3550  139.0150  162.6267 C.ar    1  UNL1        0.0765
     13 C         138.7711  138.8445  163.9978 C.ar    1  UNL1        0.0193
     14 C         138.2073  140.0287  164.7255 C.ar    1  UNL1        0.0411
     15 C         138.2273  141.3836  164.0821 C.ar    1  UNL1        0.1708
     16 C         138.8112  141.5542  162.7110 C.ar    1  UNL1        0.1682
     17 N         139.3751  140.3699  161.9833 N.ar    1  UNL1       -0.2304
     18 N         138.8313  142.9090  162.0676 N.am    1  UNL1       -0.2639
     19 C         138.2675  144.0933  162.7953 C.2     1  UNL1        0.2718
     20 O         138.2875  145.4482  162.1519 O.2     1  UNL1       -0.2707
     21 C         137.6835  143.9228  164.1665 C.3     1  UNL1        0.2898
     22 O         137.6635  142.5679  164.8099 O.3     1  UNL1       -0.4628
     23 H         139.2145  143.0210  161.1677 H       1  UNL1        0.1565
     24 C         145.6954  140.9590  163.9224 C.3     1  UNL1        0.0320
     25 C         145.3868  142.3654  164.3432 C.3     1  UNL1        0.0327
     26 C         142.4973  141.7591  167.7393 C.ar    1  UNL1        0.2288
     27 N         143.4605  141.9612  166.6073 N.ar    1  UNL1       -0.2104
     28 C         143.0220  142.6871  165.3700 C.ar    1  UNL1        0.1001
     29 C         143.9852  142.8892  164.2380 C.ar    1  UNL1        0.0261
     30 C         143.5467  143.6151  163.0007 C.ar    1  UNL1        0.1566
     31 F         144.5099  143.8172  161.8687 F       1  UNL1       -0.2028
     32 C         142.1451  144.1390  162.8955 C.ar    1  UNL1        0.1281
     33 N         141.1820  143.9369  164.0276 N.ar    1  UNL1       -0.2400
     34 C         141.6204  143.2110  165.2648 C.ar    1  UNL1        0.0989
     35 C         140.6573  143.0089  166.3968 C.ar    1  UNL1        0.0292
     36 C         141.0958  142.2829  167.6341 C.ar    1  UNL1        0.1259
     37 C         140.1326  142.0809  168.7661 C.3     1  UNL1        0.4229
     38 F         139.1694  141.8787  169.8981 F       1  UNL1       -0.1657
     39 F         139.6888  140.7840  168.1570 F       1  UNL1       -0.1657
     40 F         140.5764  143.3777  169.3753 F       1  UNL1       -0.1657
     41 C         142.6489  139.5687  169.1282 C.3     1  UNL1        0.2542
     42 O         142.9358  141.0332  168.9765 O.3     1  UNL1       -0.4562
@<TRIPOS>BOND
     1    41    42    1
     2    42    26    1
     3    26    27   ar
     4    27    28   ar
     5    28    29   ar
     6    29    25    1
     7    25    24    1
     8    24     1    1
     9     1     2    1
    10     2     3    1
    11     3     4    1
    12     4     9    1
    13     9    11    1
    14    11    12    1
    15    12    13   ar
    16    13    14   ar
    17    14    15   ar
    18    15    16   ar
    19    16    17   ar
    20    16    18    1
    21    18    19   am
    22    19    20    2
    23    19    21    1
    24    21    22    1
    25     4     5    1
    26     5     6    1
    27     4     7    1
    28     7     8    1
    29    29    30   ar
    30    30    31    1
    31    30    32   ar
    32    32    33   ar
    33    33    34   ar
    34    34    35   ar
    35    35    36   ar
    36    36    37    1
    37    37    38    1
    38    37    39    1
    39    37    40    1
    40    36    26   ar
    41    34    28   ar
    42     6     1    1
    43     8     1    1
    44    17    12   ar
    45    22    15    1
    46     9    10    1
    47    18    23    1
@<TRIPOS>MOLECULE
*****
 42 47 0 0 0
SMALL
GASTEIGER

@<TRIPOS>ATOM
      1 C         141.7761  138.0381  164.2798 C.3     1  UNL1        0.0932
      2 C         141.9967  138.4577  162.8567 C.3     1  UNL1        0.0286
      3 C         143.2360  139.2148  162.4815 C.3     1  UNL1        0.0193
      4 C         144.2549  139.5522  163.5294 C.3     1  UNL1        0.0700
      5 C         144.0343  139.1326  164.9525 C.3     1  UNL1        0.0193
      6 C         142.7949  138.3755  165.3277 C.3     1  UNL1        0.0286
      7 C         143.5913  139.1358  163.7830 C.3     1  UNL1        0.1562
      8 O         142.4707  138.4513  164.1223 O.3     1  UNL1       -0.3572
      9 N         145.4943  140.3092  163.1542 N.3     1  UNL1       -0.2926
     10 H         145.6167  140.1936  162.1482 H       1  UNL1        0.1236
     11 C         145.5892  141.7795  163.4359 C.3     1  UNL1        0.1152
     12 C         144.3802  142.6531  163.2773 C.ar    1  UNL1        0.0765
     13 C         143.6319  143.1252  164.4887 C.ar    1  UNL1        0.0193
     14 C         142.4229  143.9988  164.3301 C.ar    1  UNL1        0.0411
     15 C         141.9621  144.4003  162.9603 C.ar    1  UNL1        0.1708
     16 C         142.7103  143.9282  161.7490 C.ar    1  UNL1        0.1682
     17 N         143.9194  143.0546  161.9075 N.ar    1  UNL1       -0.2304
     18 N         142.2496  144.3297  160.3791 N.am    1  UNL1       -0.2639
     19 C         141.0406  145.2033  160.2206 C.2     1  UNL1        0.2718
     20 O         140.5798  145.6048  158.8508 O.2     1  UNL1       -0.2707
     21 C         140.2923  145.6754  161.4319 C.3     1  UNL1        0.2898
     22 O         140.7531  145.2739  162.8018 O.3     1  UNL1       -0.4628
     23 H         142.7407  144.0199  159.5841 H       1  UNL1        0.1565
     24 C         140.5367  137.2810  164.6550 C.3     1  UNL1        0.0320
     25 C         139.3174  138.0212  165.1192 C.3     1  UNL1        0.0327
     26 C         140.8268  140.7466  168.3663 C.ar    1  UNL1        0.2288
     27 N         140.3237  139.8382  167.2839 N.ar    1  UNL1       -0.2104
     28 C         139.7362  140.4176  166.0312 C.ar    1  UNL1        0.1001
     29 C         139.2331  139.5091  164.9489 C.ar    1  UNL1        0.0261
     30 C         138.6456  140.0886  163.6962 C.ar    1  UNL1        0.1566
     31 F         138.1425  139.1801  162.6138 F       1  UNL1       -0.2028
     32 C         138.5614  141.5765  163.5259 C.ar    1  UNL1        0.1281
     33 N         139.0645  142.4850  164.6083 N.ar    1  UNL1       -0.2400
     34 C         139.6519  141.9055  165.8609 C.ar    1  UNL1        0.0989
     35 C         140.1551  142.8140  166.9433 C.ar    1  UNL1        0.0292
     36 C         140.7425  142.2345  168.1959 C.ar    1  UNL1        0.1259
     37 C         141.2457  143.1431  169.2783 C.3     1  UNL1        0.4229
     38 F         141.7488  144.0515  170.3606 F       1  UNL1       -0.1657
     39 F         142.6560  142.8918  168.8335 F       1  UNL1       -0.1657
     40 F         139.8354  143.3943  169.7231 F       1  UNL1       -0.1657
     41 C         142.5330  139.1718  169.5320 C.3     1  UNL1        0.2542
     42 O         141.4142  140.1672  169.6189 O.3     1  UNL1       -0.4562
@<TRIPOS>BOND
     1    41    42    1
     2    42    26    1
     3    26    27   ar
     4    27    28   ar
     5    28    29   ar
     6    29    25    1
     7    25    24    1
     8    24     1    1
     9     1     2    1
    10     2     3    1
    11     3     4    1
    12     4     9    1
    13     9    11    1
    14    11    12    1
    15    12    13   ar
    16    13    14   ar
    17    14    15   ar
    18    15    16   ar
    19    16    17   ar
    20    16    18    1
    21    18    19   am
    22    19    20    2
    23    19    21    1
    24    21    22    1
    25     4     5    1
    26     5     6    1
    27     4     7    1
    28     7     8    1
    29    29    30   ar
    30    30    31    1
    31    30    32   ar
    32    32    33   ar
    33    33    34   ar
    34    34    35   ar
    35    35    36   ar
    36    36    37    1
    37    37    38    1
    38    37    39    1
    39    37    40    1
    40    36    26   ar
    41    34    28   ar
    42     6     1    1
    43     8     1    1
    44    17    12   ar
    45    22    15    1
    46     9    10    1
    47    18    23    1
@<TRIPOS>MOLECULE
*****
 42 47 0 0 0
SMALL
GASTEIGER

@<TRIPOS>ATOM
      1 C         141.0036  144.7724  163.2401 C.3     1  UNL1        0.0932
      2 C         141.1804  144.2008  161.8646 C.3     1  UNL1        0.0286
      3 C         142.5252  143.7005  161.4274 C.3     1  UNL1        0.0193
      4 C         143.6933  143.7718  162.3657 C.3     1  UNL1        0.0700
      5 C         143.5166  144.3434  163.7413 C.3     1  UNL1        0.0193
      6 C         142.1717  144.8437  164.1784 C.3     1  UNL1        0.0286
      7 C         142.9758  144.0584  162.6502 C.3     1  UNL1        0.1562
      8 O         141.7597  144.5108  163.0455 O.3     1  UNL1       -0.3572
      9 N         145.0381  143.2716  161.9286 N.3     1  UNL1       -0.2926
     10 H         145.7147  143.9952  162.1715 H       1  UNL1        0.1236
     11 C         145.5713  141.9798  162.4736 C.3     1  UNL1        0.1152
     12 C         144.6239  140.9006  162.9068 C.ar    1  UNL1        0.0765
     13 C         144.8444  140.1866  164.2074 C.ar    1  UNL1        0.0193
     14 C         143.8970  139.1075  164.6406 C.ar    1  UNL1        0.0411
     15 C         142.7290  138.7422  163.7732 C.ar    1  UNL1        0.1708
     16 C         142.5084  139.4561  162.4726 C.ar    1  UNL1        0.1682
     17 N         143.4559  140.5354  162.0393 N.ar    1  UNL1       -0.2304
     18 N         141.3405  139.0909  161.6052 N.am    1  UNL1       -0.2639
     19 C         140.3930  138.0117  162.0384 C.2     1  UNL1        0.2718
     20 O         139.2250  137.6464  161.1710 O.2     1  UNL1       -0.2707
     21 C         140.6135  137.2977  163.3391 C.3     1  UNL1        0.2898
     22 O         141.7815  137.6630  164.2065 O.3     1  UNL1       -0.4628
     23 H         141.1957  139.5594  160.7515 H       1  UNL1        0.1565
     24 C         139.6588  145.2727  163.6773 C.3     1  UNL1        0.0320
     25 C         138.8662  144.5037  164.6925 C.3     1  UNL1        0.0327
     26 C         141.0733  141.9973  167.7085 C.ar    1  UNL1        0.2288
     27 N         140.3376  142.8327  166.7031 N.ar    1  UNL1       -0.2104
     28 C         139.5363  142.1716  165.6211 C.ar    1  UNL1        0.1001
     29 C         138.8005  143.0071  164.6158 C.ar    1  UNL1        0.0261
     30 C         137.9992  142.3460  163.5338 C.ar    1  UNL1        0.1566
     31 F         137.2635  143.1815  162.5284 F       1  UNL1       -0.2028
     32 C         137.9335  140.8494  163.4571 C.ar    1  UNL1        0.1281
     33 N         138.6692  140.0139  164.4625 N.ar    1  UNL1       -0.2400
     34 C         139.4706  140.6750  165.5445 C.ar    1  UNL1        0.0989
     35 C         140.2063  139.8396  166.5498 C.ar    1  UNL1        0.0292
     36 C         141.0077  140.5007  167.6318 C.ar    1  UNL1        0.1259
     37 C         141.7434  139.6652  168.6371 C.3     1  UNL1        0.4229
     38 F         142.4791  138.8297  169.6424 F       1  UNL1       -0.1657
     39 F         142.9621  139.6865  167.7630 F       1  UNL1       -0.1657
     40 F         140.5247  139.6438  169.5113 F       1  UNL1       -0.1657
     41 C         141.1801  143.4294  169.8735 C.3     1  UNL1        0.2542
     42 O         141.8747  142.6584  168.7905 O.3     1  UNL1       -0.4562
@<TRIPOS>BOND
     1    41    42    1
     2    42    26    1
     3    26    27   ar
     4    27    28   ar
     5    28    29   ar
     6    29    25    1
     7    25    24    1
     8    24     1    1
     9     1     2    1
    10     2     3    1
    11     3     4    1
    12     4     9    1
    13     9    11    1
    14    11    12    1
    15    12    13   ar
    16    13    14   ar
    17    14    15   ar
    18    15    16   ar
    19    16    17   ar
    20    16    18    1
    21    18    19   am
    22    19    20    2
    23    19    21    1
    24    21    22    1
    25     4     5    1
    26     5     6    1
    27     4     7    1
    28     7     8    1
    29    29    30   ar
    30    30    31    1
    31    30    32   ar
    32    32    33   ar
    33    33    34   ar
    34    34    35   ar
    35    35    36   ar
    36    36    37    1
    37    37    38    1
    38    37    39    1
    39    37    40    1
    40    36    26   ar
    41    34    28   ar
    42     6     1    1
    43     8     1    1
    44    17    12   ar
    45    22    15    1
    46     9    10    1
    47    18    23    1
@<TRIPOS>MOLECULE
*****
 42 47 0 0 0
SMALL
GASTEIGER

@<TRIPOS>ATOM
      1 C         138.7748  138.8731  164.0356 C.3     1  UNL1        0.0932
      2 C         138.3134  139.9008  165.0260 C.3     1  UNL1        0.0286
      3 C         137.7633  141.2110  164.5460 C.3     1  UNL1        0.0193
      4 C         137.6744  141.4936  163.0755 C.3     1  UNL1        0.0700
      5 C         138.1357  140.4659  162.0851 C.3     1  UNL1        0.0193
      6 C         138.6859  139.1556  162.5652 C.3     1  UNL1        0.0286
      7 C         137.9831  140.7613  163.2907 C.3     1  UNL1        0.1562
      8 O         138.4806  139.5765  163.7248 O.3     1  UNL1       -0.3572
      9 N         137.1242  142.8039  162.5955 N.3     1  UNL1       -0.2926
     10 H         136.2001  142.9066  163.0150 H       1  UNL1        0.1236
     11 C         137.8690  144.0764  162.8716 C.3     1  UNL1        0.1152
     12 C         139.3678  144.0708  162.9288 C.ar    1  UNL1        0.0765
     13 C         140.0749  144.6366  164.1247 C.ar    1  UNL1        0.0193
     14 C         141.5737  144.6311  164.1819 C.ar    1  UNL1        0.0411
     15 C         142.3656  144.0597  163.0432 C.ar    1  UNL1        0.1708
     16 C         141.6587  143.4940  161.8474 C.ar    1  UNL1        0.1682
     17 N         140.1597  143.4995  161.7901 N.ar    1  UNL1       -0.2304
     18 N         142.4506  142.9227  160.7088 N.am    1  UNL1       -0.2639
     19 C         143.9495  142.9171  160.7660 C.2     1  UNL1        0.2718
     20 O         144.7414  142.3458  159.6273 O.2     1  UNL1       -0.2707
     21 C         144.6565  143.4829  161.9619 C.3     1  UNL1        0.2898
     22 O         143.8646  144.0542  163.1005 O.3     1  UNL1       -0.4628
     23 H         141.9866  142.5513  159.9239 H       1  UNL1        0.1565
     24 C         139.3250  137.5628  164.5156 C.3     1  UNL1        0.0320
     25 C         140.7875  137.4303  164.8215 C.3     1  UNL1        0.0327
     26 C         141.4155  140.3404  168.1960 C.ar    1  UNL1        0.2288
     27 N         141.2062  139.3704  167.0712 N.ar    1  UNL1       -0.2104
     28 C         141.9109  139.5755  165.7630 C.ar    1  UNL1        0.1001
     29 C         141.7015  138.6055  164.6381 C.ar    1  UNL1        0.0261
     30 C         142.4062  138.8106  163.3299 C.ar    1  UNL1        0.1566
     31 F         142.1969  137.8406  162.2051 F       1  UNL1       -0.2028
     32 C         143.3202  139.9858  163.1466 C.ar    1  UNL1        0.1281
     33 N         143.5295  140.9558  164.2714 N.ar    1  UNL1       -0.2400
     34 C         142.8249  140.7507  165.5796 C.ar    1  UNL1        0.0989
     35 C         143.0342  141.7206  166.7044 C.ar    1  UNL1        0.0292
     36 C         142.3295  141.5155  168.0126 C.ar    1  UNL1        0.1259
     37 C         142.5389  142.4856  169.1375 C.3     1  UNL1        0.4229
     38 F         142.7483  143.4556  170.2623 F       1  UNL1       -0.1657
     39 F         143.8257  141.7998  169.4893 F       1  UNL1       -0.1657
     40 F         141.2521  143.1713  168.7857 F       1  UNL1       -0.1657
     41 C         139.2871  140.5784  169.6667 C.3     1  UNL1        0.2542
     42 O         140.7108  140.1352  169.5042 O.3     1  UNL1       -0.4562
@<TRIPOS>BOND
     1    41    42    1
     2    42    26    1
     3    26    27   ar
     4    27    28   ar
     5    28    29   ar
     6    29    25    1
     7    25    24    1
     8    24     1    1
     9     1     2    1
    10     2     3    1
    11     3     4    1
    12     4     9    1
    13     9    11    1
    14    11    12    1
    15    12    13   ar
    16    13    14   ar
    17    14    15   ar
    18    15    16   ar
    19    16    17   ar
    20    16    18    1
    21    18    19   am
    22    19    20    2
    23    19    21    1
    24    21    22    1
    25     4     5    1
    26     5     6    1
    27     4     7    1
    28     7     8    1
    29    29    30   ar
    30    30    31    1
    31    30    32   ar
    32    32    33   ar
    33    33    34   ar
    34    34    35   ar
    35    35    36   ar
    36    36    37    1
    37    37    38    1
    38    37    39    1
    39    37    40    1
    40    36    26   ar
    41    34    28   ar
    42     6     1    1
    43     8     1    1
    44    17    12   ar
    45    22    15    1
    46     9    10    1
    47    18    23    1
@<TRIPOS>MOLECULE
*****
 42 47 0 0 0
SMALL
GASTEIGER

@<TRIPOS>ATOM
      1 C         142.8182  144.2819  163.6348 C.3     1  UNL1        0.0932
      2 C         141.4404  144.4559  164.2018 C.3     1  UNL1        0.0286
      3 C         140.2413  144.3373  163.3086 C.3     1  UNL1        0.0193
      4 C         140.4198  144.0446  161.8482 C.3     1  UNL1        0.0700
      5 C         141.7976  143.8705  161.2812 C.3     1  UNL1        0.0193
      6 C         142.9968  143.9892  162.1745 C.3     1  UNL1        0.0286
      7 C         141.1071  144.1005  162.2983 C.3     1  UNL1        0.1562
      8 O         142.1914  144.2078  163.1059 O.3     1  UNL1       -0.3572
      9 N         139.2207  143.9259  160.9550 N.3     1  UNL1       -0.2926
     10 H         139.5616  143.6208  160.0434 H       1  UNL1        0.1236
     11 C         138.0964  143.0054  161.3272 C.3     1  UNL1        0.1152
     12 C         138.3898  141.6956  161.9967 C.ar    1  UNL1        0.0765
     13 C         139.1099  140.6145  161.2465 C.ar    1  UNL1        0.0193
     14 C         139.4033  139.3047  161.9161 C.ar    1  UNL1        0.0411
     15 C         138.9768  139.0760  163.3359 C.ar    1  UNL1        0.1708
     16 C         138.2568  140.1570  164.0861 C.ar    1  UNL1        0.1682
     17 N         137.9633  141.4669  163.4165 N.ar    1  UNL1       -0.2304
     18 N         137.8302  139.9283  165.5058 N.am    1  UNL1       -0.2639
     19 C         138.1237  138.6186  166.1754 C.2     1  UNL1        0.2718
     20 O         137.6971  138.3899  167.5952 O.2     1  UNL1       -0.2707
     21 C         138.8437  137.5374  165.4252 C.3     1  UNL1        0.2898
     22 O         139.2703  137.7661  164.0054 O.3     1  UNL1       -0.4628
     23 H         137.3576  140.6379  165.9982 H       1  UNL1        0.1565
     24 C         144.0174  144.4005  164.5280 C.3     1  UNL1        0.0320
     25 C         144.6536  143.1671  165.0972 C.3     1  UNL1        0.0327
     26 C         141.9863  141.8925  168.4900 C.ar    1  UNL1        0.2288
     27 N         142.8754  142.3173  167.3591 N.ar    1  UNL1       -0.2104
     28 C         143.0439  141.4282  166.1628 C.ar    1  UNL1        0.1001
     29 C         143.9330  141.8531  165.0318 C.ar    1  UNL1        0.0261
     30 C         144.1015  140.9640  163.8355 C.ar    1  UNL1        0.1566
     31 F         144.9906  141.3889  162.7046 F       1  UNL1       -0.2028
     32 C         143.3809  139.6500  163.7702 C.ar    1  UNL1        0.1281
     33 N         142.4918  139.2252  164.9011 N.ar    1  UNL1       -0.2400
     34 C         142.3233  140.1143  166.0974 C.ar    1  UNL1        0.0989
     35 C         141.4343  139.6894  167.2283 C.ar    1  UNL1        0.0292
     36 C         141.2657  140.5785  168.4246 C.ar    1  UNL1        0.1259
     37 C         140.3766  140.1536  169.5556 C.3     1  UNL1        0.4229
     38 F         139.4876  139.7287  170.6865 F       1  UNL1       -0.1657
     39 F         141.5439  139.4895  170.2237 F       1  UNL1       -0.1657
     40 F         139.2094  140.8178  168.8875 F       1  UNL1       -0.1657
     41 C         140.6384  143.7041  169.7749 C.3     1  UNL1        0.2542
     42 O         141.8178  142.7816  169.6863 O.3     1  UNL1       -0.4562
@<TRIPOS>BOND
     1    41    42    1
     2    42    26    1
     3    26    27   ar
     4    27    28   ar
     5    28    29   ar
     6    29    25    1
     7    25    24    1
     8    24     1    1
     9     1     2    1
    10     2     3    1
    11     3     4    1
    12     4     9    1
    13     9    11    1
    14    11    12    1
    15    12    13   ar
    16    13    14   ar
    17    14    15   ar
    18    15    16   ar
    19    16    17   ar
    20    16    18    1
    21    18    19   am
    22    19    20    2
    23    19    21    1
    24    21    22    1
    25     4     5    1
    26     5     6    1
    27     4     7    1
    28     7     8    1
    29    29    30   ar
    30    30    31    1
    31    30    32   ar
    32    32    33   ar
    33    33    34   ar
    34    34    35   ar
    35    35    36   ar
    36    36    37    1
    37    37    38    1
    38    37    39    1
    39    37    40    1
    40    36    26   ar
    41    34    28   ar
    42     6     1    1
    43     8     1    1
    44    17    12   ar
    45    22    15    1
    46     9    10    1
    47    18    23    1
@<TRIPOS>MOLECULE
*****
 42 47 0 0 0
SMALL
GASTEIGER

@<TRIPOS>ATOM
      1 C         142.7399  142.9391  163.7059 C.3     1  UNL1        0.0932
      2 C         143.1328  141.8562  164.6666 C.3     1  UNL1        0.0286
      3 C         143.7561  140.5908  164.1564 C.3     1  UNL1        0.0193
      4 C         143.9864  140.4083  162.6854 C.3     1  UNL1        0.0700
      5 C         143.5935  141.4911  161.7247 C.3     1  UNL1        0.0193
      6 C         142.9702  142.7565  162.2350 C.3     1  UNL1        0.0286
      7 C         143.6418  141.1190  162.9178 C.3     1  UNL1        0.1562
      8 O         143.0782  142.2632  163.3791 O.3     1  UNL1       -0.3572
      9 N         144.6097  139.1429  162.1753 N.3     1  UNL1       -0.2926
     10 H         145.1756  138.7661  162.9356 H       1  UNL1        0.1236
     11 C         143.7402  138.0226  161.6864 C.3     1  UNL1        0.1152
     12 C         142.2556  138.2133  161.5888 C.ar    1  UNL1        0.0765
     13 C         141.3508  137.5925  162.6116 C.ar    1  UNL1        0.0193
     14 C         139.8662  137.7832  162.5139 C.ar    1  UNL1        0.0411
     15 C         139.2863  138.5946  161.3935 C.ar    1  UNL1        0.1708
     16 C         140.1910  139.2154  160.3708 C.ar    1  UNL1        0.1682
     17 N         141.6757  139.0248  160.4684 N.ar    1  UNL1       -0.2304
     18 N         139.6112  140.0269  159.2504 N.am    1  UNL1       -0.2639
     19 C         138.1266  140.2176  159.1527 C.2     1  UNL1        0.2718
     20 O         137.5467  141.0290  158.0323 O.2     1  UNL1       -0.2707
     21 C         137.2218  139.5968  160.1755 C.3     1  UNL1        0.2898
     22 O         137.8016  138.7853  161.2959 O.3     1  UNL1       -0.4628
     23 H         140.2050  140.4343  158.5791 H       1  UNL1        0.1565
     24 C         142.1166  144.2044  164.2160 C.3     1  UNL1        0.0320
     25 C         140.7322  144.1790  164.7930 C.3     1  UNL1        0.0327
     26 C         139.4757  140.2232  166.5316 C.ar    1  UNL1        0.2288
     27 N         139.8945  141.5418  165.9521 N.ar    1  UNL1       -0.2104
     28 C         139.2374  142.0557  164.7054 C.ar    1  UNL1        0.1001
     29 C         139.6563  143.3744  164.1259 C.ar    1  UNL1        0.0261
     30 C         138.9993  143.8883  162.8792 C.ar    1  UNL1        0.1566
     31 F         139.4181  145.2069  162.2997 F       1  UNL1       -0.2028
     32 C         137.9233  143.0836  162.2121 C.ar    1  UNL1        0.1281
     33 N         137.5045  141.7651  162.7917 N.ar    1  UNL1       -0.2400
     34 C         138.1616  141.2511  164.0383 C.ar    1  UNL1        0.0989
     35 C         137.7428  139.9326  164.6179 C.ar    1  UNL1        0.0292
     36 C         138.3998  139.4186  165.8645 C.ar    1  UNL1        0.1259
     37 C         137.9810  138.1000  166.4441 C.3     1  UNL1        0.4229
     38 F         137.5621  136.7814  167.0237 F       1  UNL1       -0.1657
     39 F         137.1085  138.8125  167.4346 F       1  UNL1       -0.1657
     40 F         138.8534  137.3875  165.4536 F       1  UNL1       -0.1657
     41 C         139.7702  140.2920  169.1120 C.3     1  UNL1        0.2542
     42 O         140.1328  139.7093  167.7783 O.3     1  UNL1       -0.4562
@<TRIPOS>BOND
     1    41    42    1
     2    42    26    1
     3    26    27   ar
     4    27    28   ar
     5    28    29   ar
     6    29    25    1
     7    25    24    1
     8    24     1    1
     9     1     2    1
    10     2     3    1
    11     3     4    1
    12     4     9    1
    13     9    11    1
    14    11    12    1
    15    12    13   ar
    16    13    14   ar
    17    14    15   ar
    18    15    16   ar
    19    16    17   ar
    20    16    18    1
    21    18    19   am
    22    19    20    2
    23    19    21    1
    24    21    22    1
    25     4     5    1
    26     5     6    1
    27     4     7    1
    28     7     8    1
    29    29    30   ar
    30    30    31    1
    31    30    32   ar
    32    32    33   ar
    33    33    34   ar
    34    34    35   ar
    35    35    36   ar
    36    36    37    1
    37    37    38    1
    38    37    39    1
    39    37    40    1
    40    36    26   ar
    41    34    28   ar
    42     6     1    1
    43     8     1    1
    44    17    12   ar
    45    22    15    1
    46     9    10    1
    47    18    23    1
@<TRIPOS>MOLECULE
*****
 42 47 0 0 0
SMALL
GASTEIGER

@<TRIPOS>ATOM
      1 C         144.2657  142.0449  163.2576 C.3     1  UNL1        0.0932
      2 C         143.7828  142.7987  164.4612 C.3     1  UNL1        0.0286
      3 C         142.8724  143.9787  164.2916 C.3     1  UNL1        0.0193
      4 C         142.4448  144.4049  162.9184 C.3     1  UNL1        0.0700
      5 C         142.9277  143.6511  161.7148 C.3     1  UNL1        0.0193
      6 C         143.8382  142.4711  161.8844 C.3     1  UNL1        0.0286
      7 C         142.9447  143.7521  162.9613 C.3     1  UNL1        0.1562
      8 O         143.7680  142.6851  163.1146 O.3     1  UNL1       -0.3572
      9 N         141.5344  145.5849  162.7489 N.3     1  UNL1       -0.2926
     10 H         141.6782  145.9340  161.8013 H       1  UNL1        0.1236
     11 C         140.0543  145.4224  162.9305 C.3     1  UNL1        0.1152
     12 C         139.4038  144.1020  162.6421 C.ar    1  UNL1        0.0765
     13 C         138.7858  143.3109  163.7568 C.ar    1  UNL1        0.0193
     14 C         138.1352  141.9905  163.4683 C.ar    1  UNL1        0.0411
     15 C         138.1026  141.4611  162.0653 C.ar    1  UNL1        0.1708
     16 C         138.7205  142.2520  160.9506 C.ar    1  UNL1        0.1682
     17 N         139.3711  143.5725  161.2390 N.ar    1  UNL1       -0.2304
     18 N         138.6879  141.7226  159.5475 N.am    1  UNL1       -0.2639
     19 C         138.0374  140.4022  159.2591 C.2     1  UNL1        0.2718
     20 O         138.0047  139.8727  157.8560 O.2     1  UNL1       -0.2707
     21 C         137.4194  139.6111  160.3738 C.3     1  UNL1        0.2898
     22 O         137.4520  140.1406  161.7769 O.3     1  UNL1       -0.4628
     23 H         139.0935  142.2417  158.8160 H       1  UNL1        0.1565
     24 C         145.1761  140.8650  163.4271 C.3     1  UNL1        0.0320
     25 C         144.6232  139.5525  163.8981 C.3     1  UNL1        0.0327
     26 C         140.7367  139.2571  166.1471 C.ar    1  UNL1        0.2288
     27 N         142.0321  139.3556  165.3974 N.ar    1  UNL1       -0.2104
     28 C         142.1184  138.8673  163.9818 C.ar    1  UNL1        0.1001
     29 C         143.4140  138.9658  163.2321 C.ar    1  UNL1        0.0261
     30 C         143.5003  138.4775  161.8164 C.ar    1  UNL1        0.1566
     31 F         144.7958  138.5760  161.0668 F       1  UNL1       -0.2028
     32 C         142.2911  137.8907  161.1504 C.ar    1  UNL1        0.1281
     33 N         140.9956  137.7922  161.9001 N.ar    1  UNL1       -0.2400
     34 C         140.9093  138.2805  163.3157 C.ar    1  UNL1        0.0989
     35 C         139.6138  138.1821  164.0654 C.ar    1  UNL1        0.0292
     36 C         139.5275  138.6704  165.4811 C.ar    1  UNL1        0.1259
     37 C         138.2319  138.5719  166.2307 C.3     1  UNL1        0.4229
     38 F         136.9365  138.4734  166.9803 F       1  UNL1       -0.1657
     39 F         138.0513  140.0563  166.1134 F       1  UNL1       -0.1657
     40 F         138.4126  137.0874  166.3480 F       1  UNL1       -0.1657
     41 C         140.5399  141.2146  167.8439 C.3     1  UNL1        0.2542
     42 O         140.6503  139.7454  167.5627 O.3     1  UNL1       -0.4562
@<TRIPOS>BOND
     1    41    42    1
     2    42    26    1
     3    26    27   ar
     4    27    28   ar
     5    28    29   ar
     6    29    25    1
     7    25    24    1
     8    24     1    1
     9     1     2    1
    10     2     3    1
    11     3     4    1
    12     4     9    1
    13     9    11    1
    14    11    12    1
    15    12    13   ar
    16    13    14   ar
    17    14    15   ar
    18    15    16   ar
    19    16    17   ar
    20    16    18    1
    21    18    19   am
    22    19    20    2
    23    19    21    1
    24    21    22    1
    25     4     5    1
    26     5     6    1
    27     4     7    1
    28     7     8    1
    29    29    30   ar
    30    30    31    1
    31    30    32   ar
    32    32    33   ar
    33    33    34   ar
    34    34    35   ar
    35    35    36   ar
    36    36    37    1
    37    37    38    1
    38    37    39    1
    39    37    40    1
    40    36    26   ar
    41    34    28   ar
    42     6     1    1
    43     8     1    1
    44    17    12   ar
    45    22    15    1
    46     9    10    1
    47    18    23    1
@<TRIPOS>MOLECULE
*****
 42 47 0 0 0
SMALL
GASTEIGER

@<TRIPOS>ATOM
      1 C         143.8579  143.6372  162.9795 C.3     1  UNL1        0.0932
      2 C         143.2701  144.4227  164.1142 C.3     1  UNL1        0.0286
      3 C         141.9948  145.1871  163.9158 C.3     1  UNL1        0.0193
      4 C         141.3072  145.1658  162.5828 C.3     1  UNL1        0.0700
      5 C         141.8951  144.3803  161.4481 C.3     1  UNL1        0.0193
      6 C         143.1704  143.6159  161.6466 C.3     1  UNL1        0.0286
      7 C         142.0040  144.7314  162.6435 C.3     1  UNL1        0.1562
      8 O         143.1572  144.0403  162.8229 O.3     1  UNL1       -0.3572
      9 N         140.0320  145.9302  162.3844 N.3     1  UNL1       -0.2926
     10 H         139.9627  146.1337  161.3873 H       1  UNL1        0.1236
     11 C         138.7227  145.3239  162.7946 C.3     1  UNL1        0.1152
     12 C         138.6389  143.8586  163.1041 C.ar    1  UNL1        0.0765
     13 C         138.3951  143.4023  164.5121 C.ar    1  UNL1        0.0193
     14 C         138.3113  141.9370  164.8217 C.ar    1  UNL1        0.0411
     15 C         138.4713  140.9280  163.7233 C.ar    1  UNL1        0.1708
     16 C         138.7150  141.3843  162.3154 C.ar    1  UNL1        0.1682
     17 N         138.7988  142.8497  162.0058 N.ar    1  UNL1       -0.2304
     18 N         138.8750  140.3753  161.2171 N.am    1  UNL1       -0.2639
     19 C         138.7912  138.9101  161.5266 C.2     1  UNL1        0.2718
     20 O         138.9511  137.9011  160.4283 O.2     1  UNL1       -0.2707
     21 C         138.5474  138.4537  162.9346 C.3     1  UNL1        0.2898
     22 O         138.3875  139.4627  164.0330 O.3     1  UNL1       -0.4628
     23 H         139.0349  140.6749  160.2930 H       1  UNL1        0.1565
     24 C         145.1332  142.8728  163.1779 C.3     1  UNL1        0.0320
     25 C         145.1527  141.6639  164.0657 C.3     1  UNL1        0.0327
     26 C         142.4149  141.1933  167.6059 C.ar    1  UNL1        0.2288
     27 N         143.3275  141.3502  166.4258 N.ar    1  UNL1       -0.2104
     28 C         143.1110  140.5208  165.1948 C.ar    1  UNL1        0.1001
     29 C         144.0237  140.6777  164.0148 C.ar    1  UNL1        0.0261
     30 C         143.8072  139.8483  162.7838 C.ar    1  UNL1        0.1566
     31 F         144.7198  140.0051  161.6038 F       1  UNL1       -0.2028
     32 C         142.6781  138.8621  162.7329 C.ar    1  UNL1        0.1281
     33 N         141.7655  138.7052  163.9129 N.ar    1  UNL1       -0.2400
     34 C         141.9820  139.5346  165.1439 C.ar    1  UNL1        0.0989
     35 C         141.0694  139.3778  166.3239 C.ar    1  UNL1        0.0292
     36 C         141.2858  140.2071  167.5549 C.ar    1  UNL1        0.1259
     37 C         140.3732  140.0503  168.7350 C.3     1  UNL1        0.4229
     38 F         139.4605  139.8934  169.9150 F       1  UNL1       -0.1657
     39 F         139.3240  140.8588  168.0310 F       1  UNL1       -0.1657
     40 F         141.4223  139.2418  169.4390 F       1  UNL1       -0.1657
     41 C         141.5907  143.0142  169.2657 C.3     1  UNL1        0.2542
     42 O         142.6313  142.0227  168.8368 O.3     1  UNL1       -0.4562
@<TRIPOS>BOND
     1    41    42    1
     2    42    26    1
     3    26    27   ar
     4    27    28   ar
     5    28    29   ar
     6    29    25    1
     7    25    24    1
     8    24     1    1
     9     1     2    1
    10     2     3    1
    11     3     4    1
    12     4     9    1
    13     9    11    1
    14    11    12    1
    15    12    13   ar
    16    13    14   ar
    17    14    15   ar
    18    15    16   ar
    19    16    17   ar
    20    16    18    1
    21    18    19   am
    22    19    20    2
    23    19    21    1
    24    21    22    1
    25     4     5    1
    26     5     6    1
    27     4     7    1
    28     7     8    1
    29    29    30   ar
    30    30    31    1
    31    30    32   ar
    32    32    33   ar
    33    33    34   ar
    34    34    35   ar
    35    35    36   ar
    36    36    37    1
    37    37    38    1
    38    37    39    1
    39    37    40    1
    40    36    26   ar
    41    34    28   ar
    42     6     1    1
    43     8     1    1
    44    17    12   ar
    45    22    15    1
    46     9    10    1
    47    18    23    1
