@<TRIPOS>MOLECULE
*****
 39 42 0 0 0
SMALL
GASTEIGER

@<TRIPOS>ATOM
      1 N         142.0992  138.5202  160.9829 N.3     1  UNL1       -0.2711
      2 C         141.3514  138.8598  159.7277 C.3     1  UNL1        0.0933
      3 C         142.2663  137.9682  158.9415 C.3     1  UNL1        0.1035
      4 C         143.0141  137.6286  160.1966 C.3     1  UNL1        0.0933
      5 C         141.7448  139.6910  165.3134 C.3     1  UNL1        0.0224
      6 C         141.9773  140.7421  164.2689 C.3     1  UNL1        0.0057
      7 C         142.0955  140.3518  162.8254 C.3     1  UNL1        0.0163
      8 C         141.9811  138.9105  162.4264 C.3     1  UNL1        0.0576
      9 C         141.7485  137.8593  163.4709 C.3     1  UNL1        0.0163
     10 C         141.6304  138.2496  164.9144 C.3     1  UNL1        0.0057
     11 C         141.3904  140.8619  169.6440 C.ar    1  UNL1        0.0756
     12 C         140.4236  141.4108  168.6371 C.ar    1  UNL1        0.0061
     13 C         140.5417  141.0206  167.1936 C.ar    1  UNL1       -0.0041
     14 C         141.6267  140.0813  166.7569 C.ar    1  UNL1       -0.0225
     15 C         142.5935  139.5323  167.7638 C.ar    1  UNL1       -0.0041
     16 C         142.4753  139.9226  169.2073 C.ar    1  UNL1        0.0061
     17 C         141.2723  141.2522  171.0875 C.2     1  UNL1        0.3413
     18 O         140.4105  140.4467  172.0141 O.2     1  UNL1       -0.2449
     19 C         142.8435  143.2784  170.6689 C.3     1  UNL1        0.2560
     20 O         142.0159  142.4479  171.6044 O.3     1  UNL1       -0.4413
     21 N         142.3844  137.5779  157.4980 N.am    1  UNL1       -0.3018
     22 C         143.3026  138.3387  156.5881 C.2     1  UNL1        0.2426
     23 O         144.1028  139.4899  157.1217 O.2     1  UNL1       -0.2733
     24 H         141.8592  136.8224  157.1478 H       1  UNL1        0.1495
     25 C         143.4208  137.9484  155.1446 C.3     1  UNL1        0.1759
     26 N         143.6133  136.5086  154.7702 N.am    1  UNL1       -0.2931
     27 C         142.4399  135.5743  154.7552 C.2     1  UNL1        0.2462
     28 O         141.0741  136.0797  155.1145 O.2     1  UNL1       -0.2701
     29 H         144.5098  136.1770  154.5345 H       1  UNL1        0.1502
     30 C         142.6324  134.1346  154.3809 C.ar    1  UNL1        0.0533
     31 C         142.1154  133.6253  153.0681 C.ar    1  UNL1        0.0045
     32 C         142.3078  132.1856  152.6938 C.ar    1  UNL1        0.0001
     33 C         143.0173  131.2551  153.6323 C.ar    1  UNL1        0.0039
     34 C         143.5344  131.7643  154.9450 C.ar    1  UNL1        0.0716
     35 C         143.3419  133.2040  155.3194 C.ar    1  UNL1        0.0084
     36 C         144.2438  130.8337  155.8835 C.3     1  UNL1        0.4186
     37 F         144.9533  129.9032  156.8220 F       1  UNL1       -0.1659
     38 F         143.1310  129.8386  155.7381 F       1  UNL1       -0.1659
     39 F         145.3567  131.8289  156.0289 F       1  UNL1       -0.1659
@<TRIPOS>BOND
     1    19    20    1
     2    20    17    1
     3    17    18    2
     4    17    11    1
     5    11    12   ar
     6    12    13   ar
     7    13    14   ar
     8     5    14    1
     9     5     6    1
    10     6     7    1
    11     7     8    1
    12     8     1    1
    13     1     2    1
    14     2     3    1
    15     3    21    1
    16    21    22   am
    17    22    23    2
    18    22    25    1
    19    25    26    1
    20    26    27   am
    21    27    28    2
    22    27    30    1
    23    30    31   ar
    24    31    32   ar
    25    32    33   ar
    26    33    34   ar
    27    34    36    1
    28    36    37    1
    29    36    38    1
    30    36    39    1
    31    34    35   ar
    32     3     4    1
    33     8     9    1
    34     9    10    1
    35    14    15   ar
    36    15    16   ar
    37    16    11   ar
    38    10     5    1
    39     4     1    1
    40    35    30   ar
    41    21    24    1
    42    26    29    1
@<TRIPOS>MOLECULE
*****
 39 42 0 0 0
SMALL
GASTEIGER

@<TRIPOS>ATOM
      1 N         140.0903  139.1213  160.9493 N.3     1  UNL1       -0.2711
      2 C         139.0992  139.1290  159.8233 C.3     1  UNL1        0.0933
      3 C         140.0944  138.4332  158.9427 C.3     1  UNL1        0.1035
      4 C         141.0855  138.4255  160.0686 C.3     1  UNL1        0.0933
      5 C         140.0817  140.5809  165.2060 C.3     1  UNL1        0.0224
      6 C         139.1717  139.4615  164.7951 C.3     1  UNL1        0.0057
      7 C         139.1746  138.9749  163.3762 C.3     1  UNL1        0.0163
      8 C         140.0874  139.6078  162.3682 C.3     1  UNL1        0.0576
      9 C         140.9974  140.7272  162.7791 C.3     1  UNL1        0.0163
     10 C         140.9945  141.2138  164.1980 C.3     1  UNL1        0.0057
     11 C         140.0730  142.0405  169.4627 C.ar    1  UNL1        0.0756
     12 C         140.6382  142.9046  168.3747 C.ar    1  UNL1        0.0061
     13 C         140.6411  142.4181  166.9558 C.ar    1  UNL1       -0.0041
     14 C         140.0788  141.0674  166.6249 C.ar    1  UNL1       -0.0225
     15 C         139.5136  140.2033  167.7129 C.ar    1  UNL1       -0.0041
     16 C         139.5107  140.6898  169.1318 C.ar    1  UNL1        0.0061
     17 C         140.0701  142.5270  170.8816 C.2     1  UNL1        0.3413
     18 O         138.9607  143.4110  171.3691 O.2     1  UNL1       -0.2449
     19 C         142.1072  141.0140  171.4393 C.3     1  UNL1        0.2560
     20 O         141.1767  142.1295  171.8130 O.3     1  UNL1       -0.4413
     21 N         140.0973  137.9467  157.5238 N.am    1  UNL1       -0.3018
     22 C         140.7440  138.7702  156.4498 C.2     1  UNL1        0.2426
     23 O         141.3880  140.0804  156.7948 O.2     1  UNL1       -0.2733
     24 H         139.6747  137.0868  157.2974 H       1  UNL1        0.1495
     25 C         140.7469  138.2837  155.0309 C.3     1  UNL1        0.1759
     26 N         141.1223  136.8638  154.7257 N.am    1  UNL1       -0.2931
     27 C         142.2659  136.2181  155.4504 C.2     1  UNL1        0.2462
     28 O         143.0341  136.9922  156.4803 O.2     1  UNL1       -0.2701
     29 H         140.6181  136.3558  154.0497 H       1  UNL1        0.1502
     30 C         142.6413  134.7983  155.1452 C.ar    1  UNL1        0.0533
     31 C         142.1754  134.1564  153.8720 C.ar    1  UNL1        0.0045
     32 C         142.5508  132.7366  153.5668 C.ar    1  UNL1        0.0001
     33 C         143.3921  131.9586  154.5348 C.ar    1  UNL1        0.0039
     34 C         143.8579  132.6004  155.8080 C.ar    1  UNL1        0.0716
     35 C         143.4825  134.0202  156.1132 C.ar    1  UNL1        0.0084
     36 C         144.6991  131.8223  156.7760 C.3     1  UNL1        0.4186
     37 F         145.5404  131.0443  157.7440 F       1  UNL1       -0.1659
     38 F         144.2063  132.6864  157.8987 F       1  UNL1       -0.1659
     39 F         145.1919  130.9583  155.6532 F       1  UNL1       -0.1659
@<TRIPOS>BOND
     1    19    20    1
     2    20    17    1
     3    17    18    2
     4    17    11    1
     5    11    12   ar
     6    12    13   ar
     7    13    14   ar
     8     5    14    1
     9     5     6    1
    10     6     7    1
    11     7     8    1
    12     8     1    1
    13     1     2    1
    14     2     3    1
    15     3    21    1
    16    21    22   am
    17    22    23    2
    18    22    25    1
    19    25    26    1
    20    26    27   am
    21    27    28    2
    22    27    30    1
    23    30    31   ar
    24    31    32   ar
    25    32    33   ar
    26    33    34   ar
    27    34    36    1
    28    36    37    1
    29    36    38    1
    30    36    39    1
    31    34    35   ar
    32     3     4    1
    33     8     9    1
    34     9    10    1
    35    14    15   ar
    36    15    16   ar
    37    16    11   ar
    38    10     5    1
    39     4     1    1
    40    35    30   ar
    41    21    24    1
    42    26    29    1
@<TRIPOS>MOLECULE
*****
 39 42 0 0 0
SMALL
GASTEIGER

@<TRIPOS>ATOM
      1 N         142.5602  138.9962  160.7478 N.3     1  UNL1       -0.2711
      2 C         142.8027  137.6077  160.2346 C.3     1  UNL1        0.0933
      3 C         142.8454  138.1342  158.8306 C.3     1  UNL1        0.1035
      4 C         142.6029  139.5226  159.3438 C.3     1  UNL1        0.0933
      5 C         141.9551  140.8249  164.8147 C.3     1  UNL1        0.0224
      6 C         141.3236  141.4537  163.6081 C.3     1  UNL1        0.0057
      7 C         141.5253  140.8441  162.2525 C.3     1  UNL1        0.0163
      8 C         142.3585  139.6058  162.1034 C.3     1  UNL1        0.0576
      9 C         142.9899  138.9769  163.3100 C.3     1  UNL1        0.0163
     10 C         142.7882  139.5865  164.6656 C.3     1  UNL1        0.0057
     11 C         141.3500  142.6535  168.8816 C.ar    1  UNL1        0.0756
     12 C         142.7312  142.2982  168.4170 C.ar    1  UNL1        0.0061
     13 C         142.9329  141.6886  167.0614 C.ar    1  UNL1       -0.0041
     14 C         141.7534  141.4344  166.1703 C.ar    1  UNL1       -0.0225
     15 C         140.3722  141.7898  166.6349 C.ar    1  UNL1       -0.0041
     16 C         140.1705  142.3993  167.9906 C.ar    1  UNL1        0.0061
     17 C         141.1483  143.2631  170.2373 C.2     1  UNL1        0.3413
     18 O         140.7654  144.7081  170.3604 O.2     1  UNL1       -0.2449
     19 C         141.0123  140.9620  171.4356 C.3     1  UNL1        0.2560
     20 O         141.3295  142.4276  171.4698 O.3     1  UNL1       -0.4413
     21 N         143.0471  137.5246  157.4750 N.am    1  UNL1       -0.3018
     22 C         141.8608  137.1546  156.6350 C.2     1  UNL1        0.2426
     23 O         140.4726  137.3942  157.1506 O.2     1  UNL1       -0.2733
     24 H         143.9582  137.3674  157.1366 H       1  UNL1        0.1495
     25 C         142.0625  136.5451  155.2794 C.3     1  UNL1        0.1759
     26 N         141.7944  135.0846  155.0663 N.am    1  UNL1       -0.2931
     27 C         142.4245  134.0668  155.9702 C.2     1  UNL1        0.2462
     28 O         143.3227  134.5094  157.0871 O.2     1  UNL1       -0.2701
     29 H         141.2049  134.7942  154.3332 H       1  UNL1        0.1502
     30 C         142.1565  132.6064  155.7571 C.ar    1  UNL1        0.0533
     31 C         141.0440  132.1726  154.8492 C.ar    1  UNL1        0.0045
     32 C         140.7760  130.7123  154.6362 C.ar    1  UNL1        0.0001
     33 C         141.6204  129.6856  155.3311 C.ar    1  UNL1        0.0039
     34 C         142.7329  130.1193  156.2389 C.ar    1  UNL1        0.0716
     35 C         143.0010  131.5797  156.4520 C.ar    1  UNL1        0.0084
     36 C         143.5774  129.0926  156.9338 C.3     1  UNL1        0.4186
     37 F         144.4218  128.0659  157.6286 F       1  UNL1       -0.1659
     38 F         144.4520  130.1818  157.4803 F       1  UNL1       -0.1659
     39 F         142.7027  128.0034  156.3873 F       1  UNL1       -0.1659
@<TRIPOS>BOND
     1    19    20    1
     2    20    17    1
     3    17    18    2
     4    17    11    1
     5    11    12   ar
     6    12    13   ar
     7    13    14   ar
     8     5    14    1
     9     5     6    1
    10     6     7    1
    11     7     8    1
    12     8     1    1
    13     1     2    1
    14     2     3    1
    15     3    21    1
    16    21    22   am
    17    22    23    2
    18    22    25    1
    19    25    26    1
    20    26    27   am
    21    27    28    2
    22    27    30    1
    23    30    31   ar
    24    31    32   ar
    25    32    33   ar
    26    33    34   ar
    27    34    36    1
    28    36    37    1
    29    36    38    1
    30    36    39    1
    31    34    35   ar
    32     3     4    1
    33     8     9    1
    34     9    10    1
    35    14    15   ar
    36    15    16   ar
    37    16    11   ar
    38    10     5    1
    39     4     1    1
    40    35    30   ar
    41    21    24    1
    42    26    29    1
@<TRIPOS>MOLECULE
*****
 39 42 0 0 0
SMALL
GASTEIGER

@<TRIPOS>ATOM
      1 N         141.3322  137.8065  156.8392 N.3     1  UNL1       -0.2711
      2 C         141.4145  138.6461  158.0795 C.3     1  UNL1        0.0933
      3 C         140.5709  139.6984  157.4231 C.3     1  UNL1        0.1035
      4 C         140.4885  138.8589  156.1828 C.3     1  UNL1        0.0933
      5 C         142.9472  133.7931  155.6004 C.3     1  UNL1        0.0224
      6 C         143.6297  134.5743  156.6839 C.3     1  UNL1        0.0057
      7 C         143.0913  135.9121  157.0968 C.3     1  UNL1        0.0163
      8 C         141.8705  136.4687  156.4262 C.3     1  UNL1        0.0576
      9 C         141.1880  135.6875  155.3428 C.3     1  UNL1        0.0163
     10 C         141.7264  134.3497  154.9299 C.3     1  UNL1        0.0057
     11 C         144.5622  129.7797  154.3617 C.ar    1  UNL1        0.0756
     12 C         144.9833  130.3872  155.6669 C.ar    1  UNL1        0.0061
     13 C         144.4449  131.7250  156.0798 C.ar    1  UNL1       -0.0041
     14 C         143.4855  132.4553  155.1875 C.ar    1  UNL1       -0.0225
     15 C         143.0645  131.8478  153.8824 C.ar    1  UNL1       -0.0041
     16 C         143.6028  130.5100  153.4695 C.ar    1  UNL1        0.0061
     17 C         145.1005  128.4419  153.9488 C.2     1  UNL1        0.3413
     18 O         145.6427  128.2466  152.5640 O.2     1  UNL1       -0.2449
     19 C         146.3931  126.7524  155.4404 C.3     1  UNL1        0.2560
     20 O         145.0967  127.2995  154.9208 O.3     1  UNL1       -0.4413
     21 N         140.0325  141.0362  157.8360 N.am    1  UNL1       -0.3018
     22 C         138.6204  141.1573  158.3271 C.2     1  UNL1        0.2426
     23 O         137.7466  139.9406  158.4053 O.2     1  UNL1       -0.2733
     24 H         140.6060  141.8348  157.7846 H       1  UNL1        0.1495
     25 C         138.0821  142.4951  158.7400 C.3     1  UNL1        0.1759
     26 N         138.5943  143.1582  159.9842 N.am    1  UNL1       -0.2931
     27 C         138.2240  142.6127  161.3316 C.2     1  UNL1        0.2462
     28 O         137.3413  141.4042  161.4347 O.2     1  UNL1       -0.2701
     29 H         139.1736  143.9513  159.9166 H       1  UNL1        0.1502
     30 C         138.7362  143.2757  162.5758 C.ar    1  UNL1        0.0533
     31 C         137.7793  143.6833  163.6567 C.ar    1  UNL1        0.0045
     32 C         138.2915  144.3463  164.9009 C.ar    1  UNL1        0.0001
     33 C         139.7606  144.6017  165.0642 C.ar    1  UNL1        0.0039
     34 C         140.7174  144.1940  163.9834 C.ar    1  UNL1        0.0716
     35 C         140.2052  143.5310  162.7391 C.ar    1  UNL1        0.0084
     36 C         142.1865  144.4494  164.1468 C.3     1  UNL1        0.4186
     37 F         143.6555  144.7047  164.3101 F       1  UNL1       -0.1659
     38 F         142.3838  143.0302  164.5906 F       1  UNL1       -0.1659
     39 F         141.9891  145.8686  163.7030 F       1  UNL1       -0.1659
@<TRIPOS>BOND
     1    19    20    1
     2    20    17    1
     3    17    18    2
     4    17    11    1
     5    11    12   ar
     6    12    13   ar
     7    13    14   ar
     8     5    14    1
     9     5     6    1
    10     6     7    1
    11     7     8    1
    12     8     1    1
    13     1     2    1
    14     2     3    1
    15     3    21    1
    16    21    22   am
    17    22    23    2
    18    22    25    1
    19    25    26    1
    20    26    27   am
    21    27    28    2
    22    27    30    1
    23    30    31   ar
    24    31    32   ar
    25    32    33   ar
    26    33    34   ar
    27    34    36    1
    28    36    37    1
    29    36    38    1
    30    36    39    1
    31    34    35   ar
    32     3     4    1
    33     8     9    1
    34     9    10    1
    35    14    15   ar
    36    15    16   ar
    37    16    11   ar
    38    10     5    1
    39     4     1    1
    40    35    30   ar
    41    21    24    1
    42    26    29    1
@<TRIPOS>MOLECULE
*****
 39 42 0 0 0
SMALL
GASTEIGER

@<TRIPOS>ATOM
      1 N         141.8660  144.2457  160.4594 N.3     1  UNL1       -0.2711
      2 C         142.5822  143.7784  159.2270 C.3     1  UNL1        0.0933
      3 C         141.8398  144.7942  158.4104 C.3     1  UNL1        0.1035
      4 C         141.1236  145.2616  159.6427 C.3     1  UNL1        0.0933
      5 C         141.9216  143.0821  164.8060 C.3     1  UNL1        0.0224
      6 C         140.9348  142.4466  163.8720 C.3     1  UNL1        0.0057
      7 C         140.9163  142.8344  162.4231 C.3     1  UNL1        0.0163
      8 C         141.8845  143.8579  161.9082 C.3     1  UNL1        0.0576
      9 C         142.8713  144.4934  162.8422 C.3     1  UNL1        0.0163
     10 C         142.8898  144.1055  164.2911 C.3     1  UNL1        0.0057
     11 C         141.9771  141.9185  169.1526 C.ar    1  UNL1        0.0756
     12 C         140.6711  142.0363  168.4243 C.ar    1  UNL1        0.0061
     13 C         140.6526  142.4242  166.9755 C.ar    1  UNL1       -0.0041
     14 C         141.9401  142.6943  166.2548 C.ar    1  UNL1       -0.0225
     15 C         143.2461  142.5765  166.9831 C.ar    1  UNL1       -0.0041
     16 C         143.2646  142.1886  168.4319 C.ar    1  UNL1        0.0061
     17 C         141.9957  141.5307  170.6014 C.2     1  UNL1        0.3413
     18 O         141.6122  142.5316  171.6508 O.2     1  UNL1       -0.2449
     19 C         142.4180  139.0438  169.9793 C.3     1  UNL1        0.2560
     20 O         142.3976  140.1419  171.0010 O.3     1  UNL1       -0.4413
     21 N         141.8213  145.1821  156.9615 N.am    1  UNL1       -0.3018
     22 C         140.8887  144.4905  156.0118 C.2     1  UNL1        0.2426
     23 O         139.9745  143.4110  156.5110 O.2     1  UNL1       -0.2733
     24 H         142.4212  145.8906  156.6339 H       1  UNL1        0.1495
     25 C         140.8701  144.8784  154.5630 C.3     1  UNL1        0.1759
     26 N         140.8888  146.3270  154.1741 N.am    1  UNL1       -0.2931
     27 C         139.6879  147.1882  154.4315 C.2     1  UNL1        0.2462
     28 O         138.4684  146.6007  155.0778 O.2     1  UNL1       -0.2701
     29 H         141.6892  146.7126  153.7499 H       1  UNL1        0.1502
     30 C         139.7065  148.6368  154.0426 C.ar    1  UNL1        0.0533
     31 C         140.1538  149.0388  152.6684 C.ar    1  UNL1        0.0045
     32 C         140.1724  150.4873  152.2795 C.ar    1  UNL1        0.0001
     33 C         139.7438  151.5340  153.2648 C.ar    1  UNL1        0.0039
     34 C         139.2966  151.1320  154.6390 C.ar    1  UNL1        0.0716
     35 C         139.2780  149.6834  155.0279 C.ar    1  UNL1        0.0084
     36 C         138.8680  152.1787  155.6243 C.3     1  UNL1        0.4186
     37 F         138.4394  153.2253  156.6096 F       1  UNL1       -0.1659
     38 F         138.8099  151.1387  156.7037 F       1  UNL1       -0.1659
     39 F         138.9261  153.2186  154.5449 F       1  UNL1       -0.1659
@<TRIPOS>BOND
     1    19    20    1
     2    20    17    1
     3    17    18    2
     4    17    11    1
     5    11    12   ar
     6    12    13   ar
     7    13    14   ar
     8     5    14    1
     9     5     6    1
    10     6     7    1
    11     7     8    1
    12     8     1    1
    13     1     2    1
    14     2     3    1
    15     3    21    1
    16    21    22   am
    17    22    23    2
    18    22    25    1
    19    25    26    1
    20    26    27   am
    21    27    28    2
    22    27    30    1
    23    30    31   ar
    24    31    32   ar
    25    32    33   ar
    26    33    34   ar
    27    34    36    1
    28    36    37    1
    29    36    38    1
    30    36    39    1
    31    34    35   ar
    32     3     4    1
    33     8     9    1
    34     9    10    1
    35    14    15   ar
    36    15    16   ar
    37    16    11   ar
    38    10     5    1
    39     4     1    1
    40    35    30   ar
    41    21    24    1
    42    26    29    1
@<TRIPOS>MOLECULE
*****
 39 42 0 0 0
SMALL
GASTEIGER

@<TRIPOS>ATOM
      1 N         140.1416  142.5549  160.2314 N.3     1  UNL1       -0.2711
      2 C         139.1532  143.0373  159.2113 C.3     1  UNL1        0.0933
      3 C         140.2105  142.9593  158.1502 C.3     1  UNL1        0.1035
      4 C         141.1988  142.4770  159.1702 C.3     1  UNL1        0.0933
      5 C         139.9954  141.6972  164.6465 C.3     1  UNL1        0.0224
      6 C         139.7608  143.0913  164.1451 C.3     1  UNL1        0.0057
      7 C         139.8095  143.3772  162.6735 C.3     1  UNL1        0.0163
      8 C         140.0928  142.2690  161.7031 C.3     1  UNL1        0.0576
      9 C         140.3274  140.8749  162.2044 C.3     1  UNL1        0.0163
     10 C         140.2787  140.5890  163.6761 C.3     1  UNL1        0.0057
     11 C         139.8492  140.8394  169.0616 C.ar    1  UNL1        0.0756
     12 C         139.4259  139.7882  168.0789 C.ar    1  UNL1        0.0061
     13 C         139.4746  140.0741  166.6072 C.ar    1  UNL1       -0.0041
     14 C         139.9466  141.4112  166.1182 C.ar    1  UNL1       -0.0225
     15 C         140.3699  142.4625  167.1009 C.ar    1  UNL1       -0.0041
     16 C         140.3212  142.1765  168.5725 C.ar    1  UNL1        0.0061
     17 C         139.8005  140.5535  170.5332 C.2     1  UNL1        0.3413
     18 O         138.9312  139.4476  171.0540 O.2     1  UNL1       -0.2449
     19 C         142.1181  141.2858  171.4509 C.3     1  UNL1        0.2560
     20 O         140.6210  141.3734  171.4841 O.3     1  UNL1       -0.4413
     21 N         140.2592  143.2452  156.6785 N.am    1  UNL1       -0.3018
     22 C         140.5948  144.6242  156.1931 C.2     1  UNL1        0.2426
     23 O         140.8817  145.7174  157.1794 O.2     1  UNL1       -0.2733
     24 H         140.0709  142.5278  156.0311 H       1  UNL1        0.1495
     25 C         140.6435  144.9102  154.7214 C.3     1  UNL1        0.1759
     26 N         140.7503  146.3253  154.2354 N.am    1  UNL1       -0.2931
     27 C         139.6061  147.2747  154.4338 C.2     1  UNL1        0.2462
     28 O         138.3551  146.8090  155.1182 O.2     1  UNL1       -0.2701
     29 H         141.5713  146.6309  153.7863 H       1  UNL1        0.1502
     30 C         139.7128  148.6898  153.9479 C.ar    1  UNL1        0.0533
     31 C         140.3111  148.9778  152.6028 C.ar    1  UNL1        0.0045
     32 C         140.4178  150.3929  152.1169 C.ar    1  UNL1        0.0001
     33 C         139.9262  151.5200  152.9760 C.ar    1  UNL1        0.0039
     34 C         139.3279  151.2320  154.3210 C.ar    1  UNL1        0.0716
     35 C         139.2212  149.8169  154.8070 C.ar    1  UNL1        0.0084
     36 C         138.8364  152.3591  155.1801 C.3     1  UNL1        0.4186
     37 F         138.3448  153.4862  156.0392 F       1  UNL1       -0.1659
     38 F         138.5348  153.1644  153.9511 F       1  UNL1       -0.1659
     39 F         139.1379  151.5538  156.4092 F       1  UNL1       -0.1659
@<TRIPOS>BOND
     1    19    20    1
     2    20    17    1
     3    17    18    2
     4    17    11    1
     5    11    12   ar
     6    12    13   ar
     7    13    14   ar
     8     5    14    1
     9     5     6    1
    10     6     7    1
    11     7     8    1
    12     8     1    1
    13     1     2    1
    14     2     3    1
    15     3    21    1
    16    21    22   am
    17    22    23    2
    18    22    25    1
    19    25    26    1
    20    26    27   am
    21    27    28    2
    22    27    30    1
    23    30    31   ar
    24    31    32   ar
    25    32    33   ar
    26    33    34   ar
    27    34    36    1
    28    36    37    1
    29    36    38    1
    30    36    39    1
    31    34    35   ar
    32     3     4    1
    33     8     9    1
    34     9    10    1
    35    14    15   ar
    36    15    16   ar
    37    16    11   ar
    38    10     5    1
    39     4     1    1
    40    35    30   ar
    41    21    24    1
    42    26    29    1
@<TRIPOS>MOLECULE
*****
 39 42 0 0 0
SMALL
GASTEIGER

@<TRIPOS>ATOM
      1 N         141.5501  137.3605  156.9268 N.3     1  UNL1       -0.2711
      2 C         142.1692  138.5378  157.6202 C.3     1  UNL1        0.0933
      3 C         140.8370  139.2270  157.6393 C.3     1  UNL1        0.1035
      4 C         140.2179  138.0497  156.9460 C.3     1  UNL1        0.0933
      5 C         143.0628  133.4010  155.4153 C.3     1  UNL1        0.0224
      6 C         143.7994  134.1178  156.5078 C.3     1  UNL1        0.0057
      7 C         143.2952  135.4376  157.0116 C.3     1  UNL1        0.0163
      8 C         142.0543  136.0407  156.4229 C.3     1  UNL1        0.0576
      9 C         141.3177  135.3239  155.3304 C.3     1  UNL1        0.0163
     10 C         141.8219  134.0041  154.8266 C.3     1  UNL1        0.0057
     11 C         144.5754  129.4416  153.9038 C.ar    1  UNL1        0.0756
     12 C         144.9626  129.9197  155.2717 C.ar    1  UNL1        0.0061
     13 C         144.4584  131.2395  155.7756 C.ar    1  UNL1       -0.0041
     14 C         143.5670  132.0812  154.9114 C.ar    1  UNL1       -0.0225
     15 C         143.1798  131.6031  153.5434 C.ar    1  UNL1       -0.0041
     16 C         143.6840  130.2833  153.0396 C.ar    1  UNL1        0.0061
     17 C         145.0797  128.1218  153.3999 C.2     1  UNL1        0.3413
     18 O         144.8539  127.7290  151.9700 O.2     1  UNL1       -0.2449
     19 C         147.2736  126.9356  154.1274 C.3     1  UNL1        0.2560
     20 O         145.8096  127.1947  154.3260 O.3     1  UNL1       -0.4413
     21 N         140.3328  140.5468  158.1432 N.am    1  UNL1       -0.3018
     22 C         140.3443  141.7470  157.2436 C.2     1  UNL1        0.2426
     23 O         140.8600  141.6274  155.8400 O.2     1  UNL1       -0.2733
     24 H         139.9943  140.6253  159.0643 H       1  UNL1        0.1495
     25 C         139.8401  143.0668  157.7474 C.3     1  UNL1        0.1759
     26 N         139.8316  143.3539  159.2197 N.am    1  UNL1       -0.2931
     27 C         141.0216  144.0007  159.8645 C.2     1  UNL1        0.2462
     28 O         142.2199  144.3604  159.0370 O.2     1  UNL1       -0.2701
     29 H         139.0451  143.1178  159.7628 H       1  UNL1        0.1502
     30 C         141.0132  144.2878  161.3367 C.ar    1  UNL1        0.0533
     31 C         142.2957  144.6080  162.0457 C.ar    1  UNL1        0.0045
     32 C         142.2873  144.8951  163.5179 C.ar    1  UNL1        0.0001
     33 C         140.9964  144.8621  164.2812 C.ar    1  UNL1        0.0039
     34 C         139.7139  144.5420  163.5722 C.ar    1  UNL1        0.0716
     35 C         139.7223  144.2548  162.0999 C.ar    1  UNL1        0.0084
     36 C         138.4231  144.5090  164.3355 C.3     1  UNL1        0.4186
     37 F         137.1322  144.4760  165.0987 F       1  UNL1       -0.1659
     38 F         139.1868  144.4878  165.6263 F       1  UNL1       -0.1659
     39 F         137.6593  144.5302  163.0446 F       1  UNL1       -0.1659
@<TRIPOS>BOND
     1    19    20    1
     2    20    17    1
     3    17    18    2
     4    17    11    1
     5    11    12   ar
     6    12    13   ar
     7    13    14   ar
     8     5    14    1
     9     5     6    1
    10     6     7    1
    11     7     8    1
    12     8     1    1
    13     1     2    1
    14     2     3    1
    15     3    21    1
    16    21    22   am
    17    22    23    2
    18    22    25    1
    19    25    26    1
    20    26    27   am
    21    27    28    2
    22    27    30    1
    23    30    31   ar
    24    31    32   ar
    25    32    33   ar
    26    33    34   ar
    27    34    36    1
    28    36    37    1
    29    36    38    1
    30    36    39    1
    31    34    35   ar
    32     3     4    1
    33     8     9    1
    34     9    10    1
    35    14    15   ar
    36    15    16   ar
    37    16    11   ar
    38    10     5    1
    39     4     1    1
    40    35    30   ar
    41    21    24    1
    42    26    29    1
@<TRIPOS>MOLECULE
*****
 39 42 0 0 0
SMALL
GASTEIGER

@<TRIPOS>ATOM
      1 N         138.7745  141.5149  160.5687 N.3     1  UNL1       -0.2711
      2 C         139.1642  142.3839  159.4097 C.3     1  UNL1        0.0933
      3 C         138.3947  141.4911  158.4819 C.3     1  UNL1        0.1035
      4 C         138.0050  140.6222  159.6408 C.3     1  UNL1        0.0933
      5 C         139.5802  141.5654  164.9957 C.3     1  UNL1        0.0224
      6 C         140.5395  140.8825  164.0666 C.3     1  UNL1        0.0057
      7 C         140.2710  140.8657  162.5909 C.3     1  UNL1        0.0163
      8 C         139.0431  141.5317  162.0444 C.3     1  UNL1        0.0576
      9 C         138.0838  142.2146  162.9736 C.3     1  UNL1        0.0163
     10 C         138.3524  142.2314  164.4493 C.3     1  UNL1        0.0057
     11 C         140.3859  141.6159  169.4227 C.ar    1  UNL1        0.0756
     12 C         139.8296  140.3823  168.7757 C.ar    1  UNL1        0.0061
     13 C         139.5610  140.3655  167.3000 C.ar    1  UNL1       -0.0041
     14 C         139.8488  141.5822  166.4714 C.ar    1  UNL1       -0.0225
     15 C         140.4051  142.8158  167.1185 C.ar    1  UNL1       -0.0041
     16 C         140.6737  142.8326  168.5941 C.ar    1  UNL1        0.0061
     17 C         140.6545  141.6327  170.8984 C.2     1  UNL1        0.3413
     18 O         139.9527  142.6252  171.7772 O.2     1  UNL1       -0.2449
     19 C         142.8615  140.2711  170.7390 C.3     1  UNL1        0.2560
     20 O         141.6249  140.6570  171.4953 O.3     1  UNL1       -0.4413
     21 N         138.1261  141.4743  157.0062 N.am    1  UNL1       -0.3018
     22 C         138.3690  140.2241  156.2139 C.2     1  UNL1        0.2426
     23 O         138.8805  138.9905  156.8972 O.2     1  UNL1       -0.2733
     24 H         137.7904  142.2839  156.5577 H       1  UNL1        0.1495
     25 C         138.1005  140.2073  154.7382 C.3     1  UNL1        0.1759
     26 N         136.8764  140.8797  154.1910 N.am    1  UNL1       -0.2931
     27 C         135.5135  140.3916  154.5839 C.2     1  UNL1        0.2462
     28 O         135.3748  139.2311  155.5241 O.2     1  UNL1       -0.2701
     29 H         136.9675  141.6414  153.5739 H       1  UNL1        0.1502
     30 C         134.2895  141.0641  154.0367 C.ar    1  UNL1        0.0533
     31 C         134.3332  141.7193  152.6881 C.ar    1  UNL1        0.0045
     32 C         133.1091  142.3918  152.1409 C.ar    1  UNL1        0.0001
     33 C         131.8413  142.4089  152.9423 C.ar    1  UNL1        0.0039
     34 C         131.7975  141.7537  154.2908 C.ar    1  UNL1        0.0716
     35 C         133.0216  141.0813  154.8381 C.ar    1  UNL1        0.0084
     36 C         130.5296  141.7709  155.0922 C.3     1  UNL1        0.4186
     37 F         129.2617  141.7881  155.8936 F       1  UNL1       -0.1659
     38 F         129.8171  142.4337  153.9507 F       1  UNL1       -0.1659
     39 F         131.2421  141.1081  156.2337 F       1  UNL1       -0.1659
@<TRIPOS>BOND
     1    19    20    1
     2    20    17    1
     3    17    18    2
     4    17    11    1
     5    11    12   ar
     6    12    13   ar
     7    13    14   ar
     8     5    14    1
     9     5     6    1
    10     6     7    1
    11     7     8    1
    12     8     1    1
    13     1     2    1
    14     2     3    1
    15     3    21    1
    16    21    22   am
    17    22    23    2
    18    22    25    1
    19    25    26    1
    20    26    27   am
    21    27    28    2
    22    27    30    1
    23    30    31   ar
    24    31    32   ar
    25    32    33   ar
    26    33    34   ar
    27    34    36    1
    28    36    37    1
    29    36    38    1
    30    36    39    1
    31    34    35   ar
    32     3     4    1
    33     8     9    1
    34     9    10    1
    35    14    15   ar
    36    15    16   ar
    37    16    11   ar
    38    10     5    1
    39     4     1    1
    40    35    30   ar
    41    21    24    1
    42    26    29    1
@<TRIPOS>MOLECULE
*****
 39 42 0 0 0
SMALL
GASTEIGER

@<TRIPOS>ATOM
      1 N         138.6072  141.1910  160.5945 N.3     1  UNL1       -0.2711
      2 C         138.6380  142.3286  159.6172 C.3     1  UNL1        0.0933
      3 C         137.8226  141.5209  158.6514 C.3     1  UNL1        0.1035
      4 C         137.7917  140.3833  159.6286 C.3     1  UNL1        0.0933
      5 C         140.2718  140.4911  164.7163 C.3     1  UNL1        0.0224
      6 C         138.7897  140.4492  164.4889 C.3     1  UNL1        0.0057
      7 C         138.2349  140.6825  163.1149 C.3     1  UNL1        0.0163
      8 C         139.1621  140.9577  161.9684 C.3     1  UNL1        0.0576
      9 C         140.6441  140.9995  162.1958 C.3     1  UNL1        0.0163
     10 C         141.1990  140.7663  163.5698 C.3     1  UNL1        0.0057
     11 C         141.9363  139.7912  168.8381 C.ar    1  UNL1        0.0756
     12 C         140.4603  139.9779  168.6471 C.ar    1  UNL1        0.0061
     13 C         139.9055  140.2112  167.2731 C.ar    1  UNL1       -0.0041
     14 C         140.8266  140.2578  166.0902 C.ar    1  UNL1       -0.0225
     15 C         142.3026  140.0711  166.2813 C.ar    1  UNL1       -0.0041
     16 C         142.8575  139.8378  167.6552 C.ar    1  UNL1        0.0061
     17 C         142.4912  139.5579  170.2121 C.2     1  UNL1        0.3413
     18 O         143.2335  138.2904  170.5159 O.2     1  UNL1       -0.2449
     19 C         142.2380  142.0456  170.9173 C.3     1  UNL1        0.2560
     20 O         142.3037  140.5921  171.2822 O.3     1  UNL1       -0.4413
     21 N         137.2677  141.7542  157.2775 N.am    1  UNL1       -0.3018
     22 C         137.4734  140.7294  156.2016 C.2     1  UNL1        0.2426
     23 O         138.2340  139.4713  156.4996 O.2     1  UNL1       -0.2733
     24 H         136.7685  142.5799  157.0819 H       1  UNL1        0.1495
     25 C         136.9186  140.9627  154.8277 C.3     1  UNL1        0.1759
     26 N         135.4451  141.1717  154.6394 N.am    1  UNL1       -0.2931
     27 C         134.4787  140.6713  155.6717 C.2     1  UNL1        0.2462
     28 O         134.9857  139.9619  156.8922 O.2     1  UNL1       -0.2701
     29 H         135.1124  141.6374  153.8383 H       1  UNL1        0.1502
     30 C         133.0054  140.8803  155.4834 C.ar    1  UNL1        0.0533
     31 C         132.5091  141.7826  154.3927 C.ar    1  UNL1        0.0045
     32 C         131.0357  141.9916  154.2045 C.ar    1  UNL1        0.0001
     33 C         130.0586  141.2983  155.1069 C.ar    1  UNL1        0.0039
     34 C         130.5547  140.3960  156.1976 C.ar    1  UNL1        0.0716
     35 C         132.0282  140.1870  156.3859 C.ar    1  UNL1        0.0084
     36 C         129.5775  139.7027  157.1000 C.3     1  UNL1        0.4186
     37 F         128.6003  139.0093  158.0024 F       1  UNL1       -0.1659
     38 F         128.6461  140.8734  156.9909 F       1  UNL1       -0.1659
     39 F         130.5089  138.5319  157.2091 F       1  UNL1       -0.1659
@<TRIPOS>BOND
     1    19    20    1
     2    20    17    1
     3    17    18    2
     4    17    11    1
     5    11    12   ar
     6    12    13   ar
     7    13    14   ar
     8     5    14    1
     9     5     6    1
    10     6     7    1
    11     7     8    1
    12     8     1    1
    13     1     2    1
    14     2     3    1
    15     3    21    1
    16    21    22   am
    17    22    23    2
    18    22    25    1
    19    25    26    1
    20    26    27   am
    21    27    28    2
    22    27    30    1
    23    30    31   ar
    24    31    32   ar
    25    32    33   ar
    26    33    34   ar
    27    34    36    1
    28    36    37    1
    29    36    38    1
    30    36    39    1
    31    34    35   ar
    32     3     4    1
    33     8     9    1
    34     9    10    1
    35    14    15   ar
    36    15    16   ar
    37    16    11   ar
    38    10     5    1
    39     4     1    1
    40    35    30   ar
    41    21    24    1
    42    26    29    1
