@<TRIPOS>MOLECULE
*****
 37 40 0 0 0
SMALL
GASTEIGER

@<TRIPOS>ATOM
      1 C         137.9949  140.1591  161.9442 C.ar    1  UNL1        0.0494
      2 C         138.5596  138.7734  161.8395 C.ar    1  UNL1        0.0159
      3 C         139.1568  138.3025  160.5466 C.ar    1  UNL1        0.0159
      4 C         139.1892  139.2173  159.3583 C.ar    1  UNL1        0.0504
      5 C         138.6245  140.6031  159.4629 C.ar    1  UNL1        0.0159
      6 C         138.0274  141.0739  160.7559 C.ar    1  UNL1        0.0159
      7 N         139.7864  138.7464  158.0654 N.am    1  UNL1       -0.2823
      8 C         141.1168  139.2748  157.6172 C.2     1  UNL1        0.2511
      9 O         141.8501  140.2741  158.4621 O.2     1  UNL1       -0.2726
     10 H         139.3051  138.0905  157.5109 H       1  UNL1        0.1549
     11 C         141.7139  138.8039  156.3243 C.3     1  UNL1        0.2139
     12 N         142.3431  137.4449  156.2398 N.ar    1  UNL1       -0.2212
     13 C         141.6152  136.1335  156.2604 C.ar    1  UNL1        0.1137
     14 C         142.6329  135.0367  156.1531 C.ar    1  UNL1        0.1005
     15 N         143.9898  135.6703  156.0663 N.ar    1  UNL1       -0.1331
     16 N         143.8107  137.1586  156.1198 N.ar    1  UNL1       -0.0637
     17 C         142.3444  133.5648  156.1358 C.3     1  UNL1        0.0437
     18 C         141.2987  133.0163  155.2107 C.3     1  UNL1        0.0064
     19 C         143.1015  132.6414  157.0436 C.3     1  UNL1        0.0064
     20 N         137.3978  140.6299  163.2371 N.pl3   1  UNL1       -0.2978
     21 H         136.5888  140.1959  163.5926 H       1  UNL1        0.1536
     22 C         140.6512  140.9114  167.5483 C.ar    1  UNL1        0.1424
     23 C         140.0157  139.7792  166.7970 C.ar    1  UNL1        0.0667
     24 C         139.1430  140.0628  165.6104 C.ar    1  UNL1        0.1473
     25 F         138.5076  138.9307  164.8591 F       1  UNL1       -0.2039
     26 C         138.9059  141.4786  165.1750 C.ar    1  UNL1        0.0770
     27 C         138.0333  141.7621  163.9884 C.ar    1  UNL1        0.1375
     28 N         137.7962  143.1778  163.5530 N.ar    1  UNL1       -0.2088
     29 C         138.4317  144.3099  164.3043 C.ar    1  UNL1        0.2000
     30 N         139.3043  144.0263  165.4909 N.ar    1  UNL1       -0.2237
     31 C         139.5414  142.6107  165.9263 C.ar    1  UNL1        0.0909
     32 C         140.4140  142.3271  167.1130 C.ar    1  UNL1        0.0563
     33 O         141.5238  140.6278  168.7350 O.3     1  UNL1       -0.4726
     34 C         140.9052  140.2387  170.0449 C.3     1  UNL1        0.2373
     35 C         141.3088  140.9463  171.3045 C.3     1  UNL1        0.1894
     36 C         139.7619  142.9646  170.7720 C.3     1  UNL1        0.1743
     37 O         140.5502  142.1573  171.7604 O.3     1  UNL1       -0.3471
@<TRIPOS>BOND
     1    36    37    1
     2    37    35    1
     3    35    34    1
     4    34    33    1
     5    33    22    1
     6    22    23   ar
     7    23    24   ar
     8    24    25    1
     9    24    26   ar
    10    26    27   ar
    11    27    20    1
    12    20     1    1
    13     1     2   ar
    14     2     3   ar
    15     3     4   ar
    16     4     7    1
    17     7     8   am
    18     8     9    2
    19     8    11    1
    20    11    12    1
    21    12    13   ar
    22    13    14   ar
    23    14    17    1
    24    17    18    1
    25    17    19    1
    26    14    15   ar
    27    15    16   ar
    28     4     5   ar
    29     5     6   ar
    30    27    28   ar
    31    28    29   ar
    32    29    30   ar
    33    30    31   ar
    34    31    32   ar
    35    32    22   ar
    36    31    26   ar
    37     6     1   ar
    38    16    12   ar
    39    20    21    1
    40     7    10    1
@<TRIPOS>MOLECULE
*****
 37 40 0 0 0
SMALL
GASTEIGER

@<TRIPOS>ATOM
      1 C         138.0133  140.0310  161.3596 C.ar    1  UNL1        0.0494
      2 C         138.0888  140.7761  160.0600 C.ar    1  UNL1        0.0159
      3 C         138.7896  140.1634  158.8838 C.ar    1  UNL1        0.0159
      4 C         139.4150  138.8056  159.0072 C.ar    1  UNL1        0.0504
      5 C         139.3396  138.0604  160.3069 C.ar    1  UNL1        0.0159
      6 C         138.6387  138.6731  161.4831 C.ar    1  UNL1        0.0159
      7 N         140.1158  138.1929  157.8310 N.am    1  UNL1       -0.2823
      8 C         141.6100  138.0609  157.8335 C.2     1  UNL1        0.2511
      9 O         142.4034  138.5417  159.0123 O.2     1  UNL1       -0.2726
     10 H         139.5951  137.8773  157.0574 H       1  UNL1        0.1549
     11 C         142.3108  137.4482  156.6574 C.3     1  UNL1        0.2139
     12 N         142.3434  135.9571  156.4970 N.ar    1  UNL1       -0.2212
     13 C         143.3062  135.0196  157.1635 C.ar    1  UNL1        0.1137
     14 C         142.9768  133.6248  156.7205 C.ar    1  UNL1        0.1005
     15 N         141.8104  133.7004  155.7803 N.ar    1  UNL1       -0.1331
     16 N         141.4190  135.1418  155.6422 N.ar    1  UNL1       -0.0637
     17 C         143.6887  132.3741  157.1435 C.3     1  UNL1        0.0437
     18 C         145.0120  132.4648  157.8440 C.3     1  UNL1        0.0064
     19 C         143.0774  131.0328  156.8659 C.3     1  UNL1        0.0064
     20 N         137.3125  140.6437  162.5358 N.pl3   1  UNL1       -0.2978
     21 H         136.4407  140.2915  162.8276 H       1  UNL1        0.1536
     22 C         140.1271  141.0741  167.1339 C.ar    1  UNL1        0.1424
     23 C         139.4996  139.9247  166.4023 C.ar    1  UNL1        0.0667
     24 C         138.7706  140.1644  165.1135 C.ar    1  UNL1        0.1473
     25 F         138.1431  139.0151  164.3818 F       1  UNL1       -0.2039
     26 C         138.6691  141.5534  164.5563 C.ar    1  UNL1        0.0770
     27 C         137.9400  141.7931  163.2674 C.ar    1  UNL1        0.1375
     28 N         137.8385  143.1820  162.7103 N.ar    1  UNL1       -0.2088
     29 C         138.4660  144.3313  163.4419 C.ar    1  UNL1        0.2000
     30 N         139.1950  144.0916  164.7307 N.ar    1  UNL1       -0.2237
     31 C         139.2966  142.7027  165.2879 C.ar    1  UNL1        0.0909
     32 C         140.0256  142.4630  166.5768 C.ar    1  UNL1        0.0563
     33 O         140.8561  140.8345  168.4228 O.3     1  UNL1       -0.4726
     34 C         140.1090  140.8610  169.7232 C.3     1  UNL1        0.2373
     35 C         140.6407  141.6578  170.8775 C.3     1  UNL1        0.1894
     36 C         140.4136  144.0762  169.9557 C.3     1  UNL1        0.1743
     37 O         140.2156  143.0842  171.0633 O.3     1  UNL1       -0.3471
@<TRIPOS>BOND
     1    36    37    1
     2    37    35    1
     3    35    34    1
     4    34    33    1
     5    33    22    1
     6    22    23   ar
     7    23    24   ar
     8    24    25    1
     9    24    26   ar
    10    26    27   ar
    11    27    20    1
    12    20     1    1
    13     1     2   ar
    14     2     3   ar
    15     3     4   ar
    16     4     7    1
    17     7     8   am
    18     8     9    2
    19     8    11    1
    20    11    12    1
    21    12    13   ar
    22    13    14   ar
    23    14    17    1
    24    17    18    1
    25    17    19    1
    26    14    15   ar
    27    15    16   ar
    28     4     5   ar
    29     5     6   ar
    30    27    28   ar
    31    28    29   ar
    32    29    30   ar
    33    30    31   ar
    34    31    32   ar
    35    32    22   ar
    36    31    26   ar
    37     6     1   ar
    38    16    12   ar
    39    20    21    1
    40     7    10    1
@<TRIPOS>MOLECULE
*****
 37 40 0 0 0
SMALL
GASTEIGER

@<TRIPOS>ATOM
      1 C         144.1660  141.3973  159.2603 C.ar    1  UNL1        0.0494
      2 C         144.1010  141.5658  157.7712 C.ar    1  UNL1        0.0159
      3 C         143.5799  140.4518  156.9124 C.ar    1  UNL1        0.0159
      4 C         143.1238  139.1694  157.5427 C.ar    1  UNL1        0.0504
      5 C         143.1887  139.0009  159.0318 C.ar    1  UNL1        0.0159
      6 C         143.7098  140.1148  159.8906 C.ar    1  UNL1        0.0159
      7 N         142.6027  138.0554  156.6839 N.am    1  UNL1       -0.2823
      8 C         143.5343  137.3115  155.7737 C.2     1  UNL1        0.2511
      9 O         144.9871  137.6814  155.7222 O.2     1  UNL1       -0.2726
     10 H         141.6492  137.8126  156.7177 H       1  UNL1        0.1549
     11 C         143.0132  136.1975  154.9149 C.3     1  UNL1        0.2139
     12 N         142.8036  134.8331  155.5019 N.ar    1  UNL1       -0.2212
     13 C         142.2651  133.6350  154.7776 C.ar    1  UNL1        0.1137
     14 C         142.2244  132.4886  155.7443 C.ar    1  UNL1        0.1005
     15 N         142.7378  132.9784  157.0659 N.ar    1  UNL1       -0.1331
     16 N         143.0958  134.4273  156.9161 N.ar    1  UNL1       -0.0637
     17 C         141.7531  131.0970  155.4423 C.3     1  UNL1        0.0437
     18 C         142.5423  129.9164  155.9255 C.3     1  UNL1        0.0064
     19 C         140.4925  130.8859  154.6572 C.3     1  UNL1        0.0064
     20 N         144.6871  142.5113  160.1191 N.pl3   1  UNL1       -0.2978
     21 H         145.1019  143.3011  159.7027 H       1  UNL1        0.1536
     22 C         141.0719  144.2953  163.7243 C.ar    1  UNL1        0.1424
     23 C         141.1828  144.3847  162.2310 C.ar    1  UNL1        0.0667
     24 C         142.3509  143.7602  161.5271 C.ar    1  UNL1        0.1473
     25 F         142.4619  143.8496  160.0339 F       1  UNL1       -0.2039
     26 C         143.4081  143.0464  162.3163 C.ar    1  UNL1        0.0770
     27 C         144.5762  142.4219  161.6123 C.ar    1  UNL1        0.1375
     28 N         145.6333  141.7080  162.4015 N.ar    1  UNL1       -0.2088
     29 C         145.5223  141.6186  163.8947 C.ar    1  UNL1        0.2000
     30 N         144.3542  142.2431  164.5987 N.ar    1  UNL1       -0.2237
     31 C         143.2971  142.9570  163.8095 C.ar    1  UNL1        0.0909
     32 C         142.1290  143.5815  164.5135 C.ar    1  UNL1        0.0563
     33 O         139.9038  144.9198  164.4283 O.3     1  UNL1       -0.4726
     34 C         138.5818  144.2119  164.4608 C.3     1  UNL1        0.2373
     35 C         137.7235  144.1692  163.2314 C.3     1  UNL1        0.1894
     36 C         138.2149  142.2513  161.5492 C.3     1  UNL1        0.1743
     37 O         137.3530  142.8502  162.6208 O.3     1  UNL1       -0.3471
@<TRIPOS>BOND
     1    36    37    1
     2    37    35    1
     3    35    34    1
     4    34    33    1
     5    33    22    1
     6    22    23   ar
     7    23    24   ar
     8    24    25    1
     9    24    26   ar
    10    26    27   ar
    11    27    20    1
    12    20     1    1
    13     1     2   ar
    14     2     3   ar
    15     3     4   ar
    16     4     7    1
    17     7     8   am
    18     8     9    2
    19     8    11    1
    20    11    12    1
    21    12    13   ar
    22    13    14   ar
    23    14    17    1
    24    17    18    1
    25    17    19    1
    26    14    15   ar
    27    15    16   ar
    28     4     5   ar
    29     5     6   ar
    30    27    28   ar
    31    28    29   ar
    32    29    30   ar
    33    30    31   ar
    34    31    32   ar
    35    32    22   ar
    36    31    26   ar
    37     6     1   ar
    38    16    12   ar
    39    20    21    1
    40     7    10    1
@<TRIPOS>MOLECULE
*****
 37 40 0 0 0
SMALL
GASTEIGER

@<TRIPOS>ATOM
      1 C         143.2321  139.8608  162.0666 C.ar    1  UNL1        0.0494
      2 C         142.2661  140.5673  161.1624 C.ar    1  UNL1        0.0159
      3 C         141.6909  139.8535  159.9751 C.ar    1  UNL1        0.0159
      4 C         142.0817  138.4333  159.6920 C.ar    1  UNL1        0.0504
      5 C         143.0477  137.7268  160.5963 C.ar    1  UNL1        0.0159
      6 C         143.6229  138.4405  161.7836 C.ar    1  UNL1        0.0159
      7 N         141.5064  137.7195  158.5048 N.am    1  UNL1       -0.2823
      8 C         142.2846  137.6458  157.2245 C.2     1  UNL1        0.2511
      9 O         143.6380  138.2858  157.1316 O.2     1  UNL1       -0.2726
     10 H         140.6181  137.2995  158.5658 H       1  UNL1        0.1549
     11 C         141.7094  136.9320  156.0373 C.3     1  UNL1        0.2139
     12 N         141.8653  135.4457  155.9077 N.ar    1  UNL1       -0.2212
     13 C         142.8271  134.5898  156.6774 C.ar    1  UNL1        0.1137
     14 C         142.6431  133.1695  156.2311 C.ar    1  UNL1        0.1005
     15 N         141.5677  133.1478  155.1856 N.ar    1  UNL1       -0.1331
     16 N         141.0870  134.5546  154.9857 N.ar    1  UNL1       -0.0637
     17 C         143.4014  131.9799  156.7408 C.3     1  UNL1        0.0437
     18 C         144.7035  132.1724  157.4602 C.3     1  UNL1        0.0064
     19 C         142.8575  130.5978  156.5311 C.3     1  UNL1        0.0064
     20 N         143.8073  140.5746  163.2539 N.pl3   1  UNL1       -0.2978
     21 H         144.3935  141.3547  163.1229 H       1  UNL1        0.1536
     22 C         140.8661  142.5841  167.3235 C.ar    1  UNL1        0.1424
     23 C         141.1840  143.0589  165.9365 C.ar    1  UNL1        0.0667
     24 C         142.0584  142.2308  165.0423 C.ar    1  UNL1        0.1473
     25 F         142.3763  142.7055  163.6554 F       1  UNL1       -0.2039
     26 C         142.6150  140.9279  165.5351 C.ar    1  UNL1        0.0770
     27 C         143.4895  140.0998  164.6409 C.ar    1  UNL1        0.1375
     28 N         144.0461  138.7970  165.1336 N.ar    1  UNL1       -0.2088
     29 C         143.7282  138.3222  166.5205 C.ar    1  UNL1        0.2000
     30 N         142.8538  139.1503  167.4147 N.ar    1  UNL1       -0.2237
     31 C         142.2972  140.4532  166.9220 C.ar    1  UNL1        0.0909
     32 C         141.4227  141.2812  167.8162 C.ar    1  UNL1        0.0563
     33 O         139.9916  143.4122  168.2177 O.3     1  UNL1       -0.4726
     34 C         140.3874  143.6471  169.6453 C.3     1  UNL1        0.2373
     35 C         139.7221  142.8738  170.7450 C.3     1  UNL1        0.1894
     36 C         141.5156  141.1214  171.4249 C.3     1  UNL1        0.1743
     37 O         140.5524  142.2077  171.8019 O.3     1  UNL1       -0.3471
@<TRIPOS>BOND
     1    36    37    1
     2    37    35    1
     3    35    34    1
     4    34    33    1
     5    33    22    1
     6    22    23   ar
     7    23    24   ar
     8    24    25    1
     9    24    26   ar
    10    26    27   ar
    11    27    20    1
    12    20     1    1
    13     1     2   ar
    14     2     3   ar
    15     3     4   ar
    16     4     7    1
    17     7     8   am
    18     8     9    2
    19     8    11    1
    20    11    12    1
    21    12    13   ar
    22    13    14   ar
    23    14    17    1
    24    17    18    1
    25    17    19    1
    26    14    15   ar
    27    15    16   ar
    28     4     5   ar
    29     5     6   ar
    30    27    28   ar
    31    28    29   ar
    32    29    30   ar
    33    30    31   ar
    34    31    32   ar
    35    32    22   ar
    36    31    26   ar
    37     6     1   ar
    38    16    12   ar
    39    20    21    1
    40     7    10    1
@<TRIPOS>MOLECULE
*****
 37 40 0 0 0
SMALL
GASTEIGER

@<TRIPOS>ATOM
      1 C         138.5998  140.4033  160.7914 C.ar    1  UNL1        0.0494
      2 C         139.1757  139.0366  161.0159 C.ar    1  UNL1        0.0159
      3 C         140.0525  138.4114  159.9717 C.ar    1  UNL1        0.0159
      4 C         140.3535  139.1529  158.7031 C.ar    1  UNL1        0.0504
      5 C         139.7776  140.5197  158.4785 C.ar    1  UNL1        0.0159
      6 C         138.9008  141.1449  159.5227 C.ar    1  UNL1        0.0159
      7 N         141.2303  138.5277  157.6589 N.am    1  UNL1       -0.2823
      8 C         140.6397  137.5934  156.6449 C.2     1  UNL1        0.2511
      9 O         139.1721  137.2843  156.6751 O.2     1  UNL1       -0.2726
     10 H         142.1935  138.7306  157.6391 H       1  UNL1        0.1549
     11 C         141.5165  136.9682  155.6008 C.3     1  UNL1        0.2139
     12 N         141.9290  135.5318  155.7298 N.ar    1  UNL1       -0.2212
     13 C         143.2067  135.0326  156.3367 C.ar    1  UNL1        0.1137
     14 C         143.2036  133.5346  156.2566 C.ar    1  UNL1        0.1005
     15 N         141.9240  133.1082  155.6002 N.ar    1  UNL1       -0.1331
     16 N         141.1363  134.3425  155.2746 N.ar    1  UNL1       -0.0637
     17 C         144.2894  132.6233  156.7469 C.3     1  UNL1        0.0437
     18 C         144.9207  132.8616  158.0865 C.3     1  UNL1        0.0064
     19 C         144.7439  131.4735  155.8975 C.3     1  UNL1        0.0064
     20 N         137.7230  141.0285  161.8356 N.pl3   1  UNL1       -0.2978
     21 H         136.8259  140.6619  162.0089 H       1  UNL1        0.1536
     22 C         139.8979  141.6419  166.7492 C.ar    1  UNL1        0.1424
     23 C         139.4079  140.4581  165.9691 C.ar    1  UNL1        0.0667
     24 C         138.8462  140.6482  164.5912 C.ar    1  UNL1        0.1473
     25 F         138.3562  139.4645  163.8111 F       1  UNL1       -0.2039
     26 C         138.7747  142.0222  163.9935 C.ar    1  UNL1        0.0770
     27 C         138.2131  142.2123  162.6157 C.ar    1  UNL1        0.1375
     28 N         138.1415  143.5862  162.0180 N.ar    1  UNL1       -0.2088
     29 C         138.6315  144.7699  162.7981 C.ar    1  UNL1        0.2000
     30 N         139.1931  144.5798  164.1759 N.ar    1  UNL1       -0.2237
     31 C         139.2647  143.2059  164.7736 C.ar    1  UNL1        0.0909
     32 C         139.8264  143.0158  166.1515 C.ar    1  UNL1        0.0563
     33 O         140.4596  141.4517  168.1270 O.3     1  UNL1       -0.4726
     34 C         140.8519  140.0815  168.5945 C.3     1  UNL1        0.2373
     35 C         142.2772  139.7945  168.9634 C.3     1  UNL1        0.1894
     36 C         142.8775  138.9286  166.5886 C.3     1  UNL1        0.1743
     37 O         143.1269  138.9427  168.0677 O.3     1  UNL1       -0.3471
@<TRIPOS>BOND
     1    36    37    1
     2    37    35    1
     3    35    34    1
     4    34    33    1
     5    33    22    1
     6    22    23   ar
     7    23    24   ar
     8    24    25    1
     9    24    26   ar
    10    26    27   ar
    11    27    20    1
    12    20     1    1
    13     1     2   ar
    14     2     3   ar
    15     3     4   ar
    16     4     7    1
    17     7     8   am
    18     8     9    2
    19     8    11    1
    20    11    12    1
    21    12    13   ar
    22    13    14   ar
    23    14    17    1
    24    17    18    1
    25    17    19    1
    26    14    15   ar
    27    15    16   ar
    28     4     5   ar
    29     5     6   ar
    30    27    28   ar
    31    28    29   ar
    32    29    30   ar
    33    30    31   ar
    34    31    32   ar
    35    32    22   ar
    36    31    26   ar
    37     6     1   ar
    38    16    12   ar
    39    20    21    1
    40     7    10    1
@<TRIPOS>MOLECULE
*****
 37 40 0 0 0
SMALL
GASTEIGER

@<TRIPOS>ATOM
      1 C         142.6819  140.0174  161.8189 C.ar    1  UNL1        0.0494
      2 C         142.3517  138.5547  161.8586 C.ar    1  UNL1        0.0159
      3 C         142.4919  137.7203  160.6200 C.ar    1  UNL1        0.0159
      4 C         142.9624  138.3486  159.3417 C.ar    1  UNL1        0.0504
      5 C         143.2926  139.8113  159.3021 C.ar    1  UNL1        0.0159
      6 C         143.1523  140.6457  160.5407 C.ar    1  UNL1        0.0159
      7 N         143.1027  137.5142  158.1031 N.am    1  UNL1       -0.2823
      8 C         142.0016  137.4926  157.0847 C.2     1  UNL1        0.2511
      9 O         140.7603  138.3055  157.3048 O.2     1  UNL1       -0.2726
     10 H         143.9174  136.9807  157.9587 H       1  UNL1        0.1549
     11 C         142.1419  136.6583  155.8461 C.3     1  UNL1        0.2139
     12 N         142.4230  135.1891  155.9593 N.ar    1  UNL1       -0.2212
     13 C         143.7239  134.5701  156.3772 C.ar    1  UNL1        0.1137
     14 C         143.5575  133.0795  156.3507 C.ar    1  UNL1        0.1005
     15 N         142.1538  132.7775  155.9165 N.ar    1  UNL1       -0.1331
     16 N         141.4527  134.0813  155.6746 N.ar    1  UNL1       -0.0637
     17 C         144.6100  132.0686  156.6975 C.3     1  UNL1        0.0437
     18 C         145.4351  132.2404  157.9384 C.3     1  UNL1        0.0064
     19 C         144.8374  130.8859  155.8034 C.3     1  UNL1        0.0064
     20 N         142.5416  140.8517  163.0575 N.pl3   1  UNL1       -0.2978
     21 H         143.3242  141.3226  163.4251 H       1  UNL1        0.1536
     22 C         140.7944  139.8821  168.0832 C.ar    1  UNL1        0.1424
     23 C         142.1271  139.7652  167.4047 C.ar    1  UNL1        0.0667
     24 C         142.2653  140.1273  165.9556 C.ar    1  UNL1        0.1473
     25 F         143.5978  140.0104  165.2771 F       1  UNL1       -0.2039
     26 C         141.0707  140.6065  165.1851 C.ar    1  UNL1        0.0770
     27 C         141.2089  140.9687  163.7361 C.ar    1  UNL1        0.1375
     28 N         140.0145  141.4479  162.9656 N.ar    1  UNL1       -0.2088
     29 C         138.6819  141.5649  163.6442 C.ar    1  UNL1        0.2000
     30 N         138.5437  141.2027  165.0932 N.ar    1  UNL1       -0.2237
     31 C         139.7382  140.7235  165.8637 C.ar    1  UNL1        0.0909
     32 C         139.6000  140.3613  167.3127 C.ar    1  UNL1        0.0563
     33 O         140.6563  139.5200  169.5323 O.3     1  UNL1       -0.4726
     34 C         141.4231  140.2818  170.5722 C.3     1  UNL1        0.2373
     35 C         140.8390  141.5258  171.1733 C.3     1  UNL1        0.1894
     36 C         142.8692  142.9121  170.3328 C.3     1  UNL1        0.1743
     37 O         141.4993  142.8524  170.9410 O.3     1  UNL1       -0.3471
@<TRIPOS>BOND
     1    36    37    1
     2    37    35    1
     3    35    34    1
     4    34    33    1
     5    33    22    1
     6    22    23   ar
     7    23    24   ar
     8    24    25    1
     9    24    26   ar
    10    26    27   ar
    11    27    20    1
    12    20     1    1
    13     1     2   ar
    14     2     3   ar
    15     3     4   ar
    16     4     7    1
    17     7     8   am
    18     8     9    2
    19     8    11    1
    20    11    12    1
    21    12    13   ar
    22    13    14   ar
    23    14    17    1
    24    17    18    1
    25    17    19    1
    26    14    15   ar
    27    15    16   ar
    28     4     5   ar
    29     5     6   ar
    30    27    28   ar
    31    28    29   ar
    32    29    30   ar
    33    30    31   ar
    34    31    32   ar
    35    32    22   ar
    36    31    26   ar
    37     6     1   ar
    38    16    12   ar
    39    20    21    1
    40     7    10    1
@<TRIPOS>MOLECULE
*****
 37 40 0 0 0
SMALL
GASTEIGER

@<TRIPOS>ATOM
      1 C         143.8138  140.8741  162.1682 C.ar    1  UNL1        0.0494
      2 C         143.6191  141.6184  160.8805 C.ar    1  UNL1        0.0159
      3 C         143.4520  140.8629  159.5955 C.ar    1  UNL1        0.0159
      4 C         143.4794  139.3632  159.5981 C.ar    1  UNL1        0.0504
      5 C         143.6741  138.6189  160.8859 C.ar    1  UNL1        0.0159
      6 C         143.8413  139.3743  162.1709 C.ar    1  UNL1        0.0159
      7 N         143.3123  138.6077  158.3131 N.am    1  UNL1       -0.2823
      8 C         141.9396  138.2443  157.8299 C.2     1  UNL1        0.2511
      9 O         140.7339  138.6363  158.6317 O.2     1  UNL1       -0.2726
     10 H         144.1035  138.3504  157.7869 H       1  UNL1        0.1549
     11 C         141.7724  137.4888  156.5448 C.3     1  UNL1        0.2139
     12 N         142.1347  136.0347  156.4771 N.ar    1  UNL1       -0.2212
     13 C         141.5434  135.0215  155.5423 C.ar    1  UNL1        0.1137
     14 C         142.1951  133.6992  155.8197 C.ar    1  UNL1        0.1005
     15 N         143.1889  133.8952  156.9260 N.ar    1  UNL1       -0.1331
     16 N         143.1516  135.3387  157.3323 N.ar    1  UNL1       -0.0637
     17 C         141.9039  132.4076  155.1146 C.3     1  UNL1        0.0437
     18 C         142.2204  131.1015  155.7809 C.3     1  UNL1        0.0064
     19 C         141.2963  132.4222  153.7433 C.3     1  UNL1        0.0064
     20 N         143.9809  141.6296  163.4532 N.pl3   1  UNL1       -0.2978
     21 H         144.8720  141.7116  163.8638 H       1  UNL1        0.1536
     22 C         141.1684  140.5437  167.9433 C.ar    1  UNL1        0.1424
     23 C         142.3590  139.9130  167.2837 C.ar    1  UNL1        0.0667
     24 C         142.8996  140.4852  166.0069 C.ar    1  UNL1        0.1473
     25 F         144.0901  139.8547  165.3473 F       1  UNL1       -0.2039
     26 C         142.2497  141.6881  165.3896 C.ar    1  UNL1        0.0770
     27 C         142.7904  142.2602  164.1128 C.ar    1  UNL1        0.1375
     28 N         142.1405  143.4630  163.4956 N.ar    1  UNL1       -0.2088
     29 C         140.9501  144.0936  164.1551 C.ar    1  UNL1        0.2000
     30 N         140.4094  143.5214  165.4320 N.ar    1  UNL1       -0.2237
     31 C         141.0592  142.3186  166.0492 C.ar    1  UNL1        0.0909
     32 C         140.5186  141.7464  167.3261 C.ar    1  UNL1        0.0563
     33 O         140.6278  139.9715  169.2201 O.3     1  UNL1       -0.4726
     34 C         141.2390  140.3594  170.5339 C.3     1  UNL1        0.2373
     35 C         141.0128  141.7342  171.0895 C.3     1  UNL1        0.1894
     36 C         143.2334  142.5820  170.0406 C.3     1  UNL1        0.1743
     37 O         142.0986  142.7656  171.0041 O.3     1  UNL1       -0.3471
@<TRIPOS>BOND
     1    36    37    1
     2    37    35    1
     3    35    34    1
     4    34    33    1
     5    33    22    1
     6    22    23   ar
     7    23    24   ar
     8    24    25    1
     9    24    26   ar
    10    26    27   ar
    11    27    20    1
    12    20     1    1
    13     1     2   ar
    14     2     3   ar
    15     3     4   ar
    16     4     7    1
    17     7     8   am
    18     8     9    2
    19     8    11    1
    20    11    12    1
    21    12    13   ar
    22    13    14   ar
    23    14    17    1
    24    17    18    1
    25    17    19    1
    26    14    15   ar
    27    15    16   ar
    28     4     5   ar
    29     5     6   ar
    30    27    28   ar
    31    28    29   ar
    32    29    30   ar
    33    30    31   ar
    34    31    32   ar
    35    32    22   ar
    36    31    26   ar
    37     6     1   ar
    38    16    12   ar
    39    20    21    1
    40     7    10    1
@<TRIPOS>MOLECULE
*****
 37 40 0 0 0
SMALL
GASTEIGER

@<TRIPOS>ATOM
      1 C         140.2245  140.7849  161.4776 C.ar    1  UNL1        0.0494
      2 C         140.4920  139.3343  161.7502 C.ar    1  UNL1        0.0159
      3 C         140.9881  138.4435  160.6500 C.ar    1  UNL1        0.0159
      4 C         141.2167  139.0032  159.2773 C.ar    1  UNL1        0.0504
      5 C         140.9492  140.4538  159.0046 C.ar    1  UNL1        0.0159
      6 C         140.4531  141.3447  160.1048 C.ar    1  UNL1        0.0159
      7 N         141.7128  138.1124  158.1771 N.am    1  UNL1       -0.2823
      8 C         140.7644  137.6231  157.1231 C.2     1  UNL1        0.2511
      9 O         139.3199  138.0246  157.1691 O.2     1  UNL1       -0.2726
     10 H         142.6609  137.8489  158.1469 H       1  UNL1        0.1549
     11 C         141.2606  136.7323  156.0229 C.3     1  UNL1        0.2139
     12 N         142.0876  135.5246  156.3512 N.ar    1  UNL1       -0.2212
     13 C         141.9830  134.1797  155.6952 C.ar    1  UNL1        0.1137
     14 C         142.9952  133.2737  156.3316 C.ar    1  UNL1        0.1005
     15 N         143.7252  134.0588  157.3808 N.ar    1  UNL1       -0.1331
     16 N         143.1642  135.4499  157.3929 N.ar    1  UNL1       -0.0637
     17 C         143.2351  131.8353  155.9804 C.3     1  UNL1        0.0437
     18 C         143.2517  130.7927  157.0587 C.3     1  UNL1        0.0064
     19 C         143.4585  131.4395  154.5509 C.3     1  UNL1        0.0064
     20 N         139.7284  141.6757  162.5777 N.pl3   1  UNL1       -0.2978
     21 H         139.4954  142.6126  162.3851 H       1  UNL1        0.1536
     22 C         142.6118  142.2300  167.1196 C.ar    1  UNL1        0.1424
     23 C         142.7529  142.7668  165.7260 C.ar    1  UNL1        0.0667
     24 C         141.7447  142.4031  164.6766 C.ar    1  UNL1        0.1473
     25 F         141.8858  142.9398  163.2831 F       1  UNL1       -0.2039
     26 C         140.5955  141.5026  165.0208 C.ar    1  UNL1        0.0770
     27 C         139.5873  141.1389  163.9713 C.ar    1  UNL1        0.1375
     28 N         138.4380  140.2385  164.3154 N.ar    1  UNL1       -0.2088
     29 C         138.2970  139.7018  165.7089 C.ar    1  UNL1        0.2000
     30 N         139.3051  140.0655  166.7584 N.ar    1  UNL1       -0.2237
     31 C         140.4544  140.9659  166.4143 C.ar    1  UNL1        0.0909
     32 C         141.4625  141.3296  167.4637 C.ar    1  UNL1        0.0563
     33 O         143.6200  142.5937  168.1691 O.3     1  UNL1       -0.4726
     34 C         143.4554  142.0920  169.5730 C.3     1  UNL1        0.2373
     35 C         142.7821  142.9507  170.6023 C.3     1  UNL1        0.1894
     36 C         141.2039  140.9880  171.2405 C.3     1  UNL1        0.1743
     37 O         141.7510  142.3573  171.5159 O.3     1  UNL1       -0.3471
@<TRIPOS>BOND
     1    36    37    1
     2    37    35    1
     3    35    34    1
     4    34    33    1
     5    33    22    1
     6    22    23   ar
     7    23    24   ar
     8    24    25    1
     9    24    26   ar
    10    26    27   ar
    11    27    20    1
    12    20     1    1
    13     1     2   ar
    14     2     3   ar
    15     3     4   ar
    16     4     7    1
    17     7     8   am
    18     8     9    2
    19     8    11    1
    20    11    12    1
    21    12    13   ar
    22    13    14   ar
    23    14    17    1
    24    17    18    1
    25    17    19    1
    26    14    15   ar
    27    15    16   ar
    28     4     5   ar
    29     5     6   ar
    30    27    28   ar
    31    28    29   ar
    32    29    30   ar
    33    30    31   ar
    34    31    32   ar
    35    32    22   ar
    36    31    26   ar
    37     6     1   ar
    38    16    12   ar
    39    20    21    1
    40     7    10    1
@<TRIPOS>MOLECULE
*****
 37 40 0 0 0
SMALL
GASTEIGER

@<TRIPOS>ATOM
      1 C         138.5763  141.7952  160.6758 C.ar    1  UNL1        0.0494
      2 C         138.9151  142.6975  161.8252 C.ar    1  UNL1        0.0159
      3 C         138.6689  142.2429  163.2333 C.ar    1  UNL1        0.0159
      4 C         138.0838  140.8862  163.4920 C.ar    1  UNL1        0.0504
      5 C         137.7450  139.9839  162.3426 C.ar    1  UNL1        0.0159
      6 C         137.9913  140.4384  160.9345 C.ar    1  UNL1        0.0159
      7 N         137.8376  140.4317  164.9001 N.am    1  UNL1       -0.2823
      8 C         138.8212  139.5248  165.5784 C.2     1  UNL1        0.2511
      9 O         140.0511  139.0724  164.8484 O.2     1  UNL1       -0.2726
     10 H         137.0304  140.7286  165.3792 H       1  UNL1        0.1549
     11 C         138.5750  139.0703  166.9865 C.3     1  UNL1        0.2139
     12 N         139.0196  139.9223  168.1382 N.ar    1  UNL1       -0.2212
     13 C         140.0000  141.0556  168.0695 C.ar    1  UNL1        0.1137
     14 C         140.1483  141.6244  169.4497 C.ar    1  UNL1        0.1005
     15 N         139.2595  140.8427  170.3711 N.ar    1  UNL1       -0.1331
     16 N         138.5620  139.7908  169.5606 N.ar    1  UNL1       -0.0637
     17 C         141.0304  142.7732  169.8397 C.3     1  UNL1        0.0437
     18 C         140.4483  144.1469  169.9943 C.3     1  UNL1        0.0064
     19 C         142.4946  142.5481  170.0752 C.3     1  UNL1        0.0064
     20 N         138.8225  142.2497  159.2677 N.pl3   1  UNL1       -0.2978
     21 H         138.2428  141.9305  158.5389 H       1  UNL1        0.1536
     22 C         143.9184  141.5779  157.5851 C.ar    1  UNL1        0.1424
     23 C         142.7888  140.6369  157.8828 C.ar    1  UNL1        0.0667
     24 C         141.4667  141.1745  158.3444 C.ar    1  UNL1        0.1473
     25 F         140.3371  140.2336  158.6421 F       1  UNL1       -0.2039
     26 C         141.2743  142.6531  158.5084 C.ar    1  UNL1        0.0770
     27 C         139.9522  143.1907  158.9700 C.ar    1  UNL1        0.1375
     28 N         139.7597  144.6692  159.1340 N.ar    1  UNL1       -0.2088
     29 C         140.8893  145.6101  158.8363 C.ar    1  UNL1        0.2000
     30 N         142.2114  145.0725  158.3747 N.ar    1  UNL1       -0.2237
     31 C         142.4039  143.5940  158.2107 C.ar    1  UNL1        0.0909
     32 C         143.7259  143.0564  157.7491 C.ar    1  UNL1        0.0563
     33 O         145.2405  141.0403  157.1235 O.3     1  UNL1       -0.4726
     34 C         146.3223  141.9831  156.6868 C.3     1  UNL1        0.2373
     35 C         146.3675  142.4673  155.2678 C.3     1  UNL1        0.1894
     36 C         147.3529  144.0559  153.4636 C.3     1  UNL1        0.1743
     37 O         147.2729  143.6023  154.8911 O.3     1  UNL1       -0.3471
@<TRIPOS>BOND
     1    36    37    1
     2    37    35    1
     3    35    34    1
     4    34    33    1
     5    33    22    1
     6    22    23   ar
     7    23    24   ar
     8    24    25    1
     9    24    26   ar
    10    26    27   ar
    11    27    20    1
    12    20     1    1
    13     1     2   ar
    14     2     3   ar
    15     3     4   ar
    16     4     7    1
    17     7     8   am
    18     8     9    2
    19     8    11    1
    20    11    12    1
    21    12    13   ar
    22    13    14   ar
    23    14    17    1
    24    17    18    1
    25    17    19    1
    26    14    15   ar
    27    15    16   ar
    28     4     5   ar
    29     5     6   ar
    30    27    28   ar
    31    28    29   ar
    32    29    30   ar
    33    30    31   ar
    34    31    32   ar
    35    32    22   ar
    36    31    26   ar
    37     6     1   ar
    38    16    12   ar
    39    20    21    1
    40     7    10    1
