@<TRIPOS>MOLECULE
*****
 36 40 0 0 0
SMALL
GASTEIGER

@<TRIPOS>ATOM
      1 C         143.9893  137.6388  166.8116 C.3     1  UNL1        0.0323
      2 C         143.1643  138.8861  166.6942 C.ar    1  UNL1       -0.0060
      3 C         142.5376  139.6388  167.8303 C.ar    1  UNL1        0.0438
      4 C         141.8072  140.8176  167.2584 C.ar    1  UNL1        0.0435
      5 N         141.9825  140.7933  165.7688 N.ar    1  UNL1       -0.3137
      6 C         142.8212  139.5997  165.4202 C.ar    1  UNL1        0.0372
      7 C         143.5034  138.7470  164.3918 C.3     1  UNL1        0.0452
      8 C         143.8464  138.4640  162.9592 C.3     1  UNL1        0.0236
      9 C         143.7581  138.8263  161.5064 C.3     1  UNL1        0.0726
     10 N         143.2624  139.7370  160.4224 N.3     1  UNL1       -0.2700
     11 C         143.8266  139.0924  159.1911 C.3     1  UNL1        0.1078
     12 C         143.4049  139.9089  158.0056 C.3     1  UNL1        0.1782
     13 F         143.7478  139.6259  156.5731 F       1  UNL1       -0.2357
     14 C         142.5800  141.0583  158.5043 C.3     1  UNL1        0.0544
     15 C         142.4919  140.9520  159.9979 C.3     1  UNL1        0.0799
     16 C         141.6531  142.1457  160.3466 C.3     1  UNL1        0.1033
     17 N         140.9709  142.9983  161.3750 N.pl3   1  UNL1       -0.3314
     18 C         140.6280  143.2813  162.8076 C.ar    1  UNL1        0.0505
     19 C         141.2834  142.1810  163.5884 C.ar    1  UNL1        0.0319
     20 C         141.1516  142.1400  165.0820 C.ar    1  UNL1        0.0646
     21 C         140.3643  143.1992  165.7948 C.ar    1  UNL1        0.0177
     22 C         139.7088  144.2996  165.0140 C.ar    1  UNL1        0.0072
     23 C         139.8407  144.3406  163.5204 C.ar    1  UNL1        0.0663
     24 C         141.0769  141.7607  168.1679 C.3     1  UNL1        0.0446
     25 C         141.0770  141.5251  169.6492 C.3     1  UNL1        0.0128
     26 C         140.7886  141.7227  171.1080 C.3     1  UNL1        0.0008
     27 C         140.2464  142.7724  169.5839 C.3     1  UNL1        0.0008
     28 C         141.8074  140.3464  170.2211 C.3     1  UNL1        0.0695
     29 C         142.5377  139.4033  169.3117 C.2     1  UNL1        0.1739
     30 O         143.2681  138.2245  169.8836 O.2     1  UNL1       -0.2913
     31 H         140.5407  143.7205  160.8625 H       1  UNL1        0.1469
     32 C         139.1852  145.4409  162.7396 C.2     1  UNL1        0.2439
     33 N         139.9873  146.6305  162.3019 N.am    1  UNL1       -0.3253
     34 O         137.7277  145.3517  162.3964 O.2     1  UNL1       -0.2703
     35 H         140.9439  146.6891  162.5271 H       1  UNL1        0.1453
     36 H         139.5571  147.3527  161.7894 H       1  UNL1        0.1453
@<TRIPOS>BOND
     1     1     2    1
     2     2     3   ar
     3     3     4   ar
     4     4     5   ar
     5     5     6   ar
     6     6     7    1
     7     7     8    1
     8     8     9    1
     9     9    10    1
    10    10    11    1
    11    11    12    1
    12    12    13    1
    13    12    14    1
    14    15    14    1
    15    15    16    1
    16    16    17    1
    17    17    18    1
    18    18    19   ar
    19    19    20   ar
    20    20    21   ar
    21    21    22   ar
    22    22    23   ar
    23    23    32    1
    24    32    33   am
    25    32    34    2
    26     4    24    1
    27    24    25    1
    28    25    26    1
    29    25    27    1
    30    25    28    1
    31    28    29    1
    32    29    30    2
    33     6     2   ar
    34    15    10    1
    35    23    18   ar
    36    29     3    1
    37    20     5    1
    38    17    31    1
    39    33    35    1
    40    33    36    1
@<TRIPOS>MOLECULE
*****
 36 40 0 0 0
SMALL
GASTEIGER

@<TRIPOS>ATOM
      1 C         137.5130  138.0851  166.9715 C.3     1  UNL1        0.0323
      2 C         138.5626  139.1422  166.7963 C.ar    1  UNL1       -0.0060
      3 C         139.1096  140.0292  167.8752 C.ar    1  UNL1        0.0438
      4 C         140.1346  140.9331  167.2570 C.ar    1  UNL1        0.0435
      5 N         140.2212  140.6048  165.7959 N.ar    1  UNL1       -0.3137
      6 C         139.2497  139.4980  165.5112 C.ar    1  UNL1        0.0372
      7 C         138.6117  138.5467  164.5427 C.3     1  UNL1        0.0452
      8 C         138.4781  138.0058  163.1500 C.3     1  UNL1        0.0236
      9 C         138.8848  138.0202  161.7063 C.3     1  UNL1        0.0726
     10 N         139.7228  138.5861  160.5984 N.3     1  UNL1       -0.2700
     11 C         139.2730  137.7733  159.4207 C.3     1  UNL1        0.1078
     12 C         140.0397  138.2366  158.2175 C.3     1  UNL1        0.1782
     13 F         139.9061  137.6957  156.8249 F       1  UNL1       -0.2357
     14 C         140.9634  139.3359  158.6517 C.3     1  UNL1        0.0544
     15 C         140.7676  139.5519  160.1231 C.3     1  UNL1        0.0799
     16 C         141.7391  140.6587  160.4079 C.3     1  UNL1        0.1033
     17 N         142.3771  141.6100  161.3763 N.pl3   1  UNL1       -0.3314
     18 C         142.5106  142.1509  162.7690 C.ar    1  UNL1        0.0505
     19 C         141.5361  141.3581  163.5885 C.ar    1  UNL1        0.0319
     20 C         141.3947  141.6306  165.0567 C.ar    1  UNL1        0.0646
     21 C         142.2278  142.6960  165.7054 C.ar    1  UNL1        0.0177
     22 C         143.2024  143.4888  164.8860 C.ar    1  UNL1        0.0072
     23 C         143.3438  143.2163  163.4177 C.ar    1  UNL1        0.0663
     24 C         140.8567  141.9383  168.1044 C.3     1  UNL1        0.0446
     25 C         140.5538  142.0397  169.5699 C.3     1  UNL1        0.0128
     26 C         140.6141  142.5119  170.9924 C.3     1  UNL1        0.0008
     27 C         141.5998  143.1076  169.4457 C.3     1  UNL1        0.0008
     28 C         139.5288  141.1358  170.1881 C.3     1  UNL1        0.0695
     29 C         138.8067  140.1305  169.3408 C.2     1  UNL1        0.1739
     30 O         137.7816  139.2266  169.9590 O.2     1  UNL1       -0.2913
     31 H         143.0167  142.1304  160.8384 H       1  UNL1        0.1469
     32 C         144.3184  144.0091  162.5982 C.2     1  UNL1        0.2439
     33 N         145.2064  143.3141  161.6091 N.am    1  UNL1       -0.3253
     34 O         144.4049  145.4970  162.7677 O.2     1  UNL1       -0.2703
     35 H         145.1496  142.3375  161.4979 H       1  UNL1        0.1453
     36 H         145.8461  143.8344  161.0712 H       1  UNL1        0.1453
@<TRIPOS>BOND
     1     1     2    1
     2     2     3   ar
     3     3     4   ar
     4     4     5   ar
     5     5     6   ar
     6     6     7    1
     7     7     8    1
     8     8     9    1
     9     9    10    1
    10    10    11    1
    11    11    12    1
    12    12    13    1
    13    12    14    1
    14    15    14    1
    15    15    16    1
    16    16    17    1
    17    17    18    1
    18    18    19   ar
    19    19    20   ar
    20    20    21   ar
    21    21    22   ar
    22    22    23   ar
    23    23    32    1
    24    32    33   am
    25    32    34    2
    26     4    24    1
    27    24    25    1
    28    25    26    1
    29    25    27    1
    30    25    28    1
    31    28    29    1
    32    29    30    2
    33     6     2   ar
    34    15    10    1
    35    23    18   ar
    36    29     3    1
    37    20     5    1
    38    17    31    1
    39    33    35    1
    40    33    36    1
@<TRIPOS>MOLECULE
*****
 36 40 0 0 0
SMALL
GASTEIGER

@<TRIPOS>ATOM
      1 C         144.9860  143.4683  166.1412 C.3     1  UNL1        0.0323
      2 C         143.7313  142.6778  165.9157 C.ar    1  UNL1       -0.0060
      3 C         142.8209  142.1455  166.9824 C.ar    1  UNL1        0.0438
      4 C         141.6936  141.4195  166.3099 C.ar    1  UNL1        0.0435
      5 N         141.9074  141.5031  164.8275 N.ar    1  UNL1       -0.3137
      6 C         143.1666  142.2807  164.5839 C.ar    1  UNL1        0.0372
      7 C         144.1651  142.8718  163.6333 C.3     1  UNL1        0.0452
      8 C         144.6350  143.1180  162.2301 C.3     1  UNL1        0.0236
      9 C         144.4506  142.9532  160.7508 C.3     1  UNL1        0.0726
     10 N         143.6612  142.4217  159.5913 N.3     1  UNL1       -0.2700
     11 C         144.4736  142.8894  158.4203 C.3     1  UNL1        0.1078
     12 C         143.7929  142.4226  157.1677 C.3     1  UNL1        0.1782
     13 F         144.2628  142.6687  155.7647 F       1  UNL1       -0.2357
     14 C         142.5597  141.6664  157.5647 C.3     1  UNL1        0.0544
     15 C         142.4783  141.6659  159.0625 C.3     1  UNL1        0.0799
     16 C         141.2189  140.8882  159.3061 C.3     1  UNL1        0.1033
     17 N         140.2206  140.2972  160.2568 N.pl3   1  UNL1       -0.3314
     18 C         139.7507  140.0510  161.6599 C.ar    1  UNL1        0.0505
     19 C         140.7716  140.7174  162.5337 C.ar    1  UNL1        0.0319
     20 C         140.6238  140.6753  164.0258 C.ar    1  UNL1        0.0646
     21 C         139.4551  139.9667  164.6440 C.ar    1  UNL1        0.0177
     22 C         138.4342  139.3004  163.7702 C.ar    1  UNL1        0.0072
     23 C         138.5820  139.3425  162.2781 C.ar    1  UNL1        0.0663
     24 C         140.6182  140.7761  167.1342 C.3     1  UNL1        0.0446
     25 C         140.6700  140.8586  168.6310 C.3     1  UNL1        0.0128
     26 C         140.2837  140.6658  170.0676 C.3     1  UNL1        0.0008
     27 C         139.4086  140.0657  168.4574 C.3     1  UNL1        0.0008
     28 C         141.7972  141.5846  169.3035 C.3     1  UNL1        0.0695
     29 C         142.8727  142.2280  168.4793 C.2     1  UNL1        0.1739
     30 O         143.9999  142.9540  169.1518 O.2     1  UNL1       -0.2913
     31 H         139.5506  139.8598  159.6832 H       1  UNL1        0.1469
     32 C         137.5610  138.6761  161.4042 C.2     1  UNL1        0.2439
     33 N         137.1648  137.2531  161.6648 N.am    1  UNL1       -0.3253
     34 O         136.9364  139.4328  160.2696 O.2     1  UNL1       -0.2703
     35 H         137.5748  136.7565  162.4095 H       1  UNL1        0.1453
     36 H         136.4948  136.8157  161.0913 H       1  UNL1        0.1453
@<TRIPOS>BOND
     1     1     2    1
     2     2     3   ar
     3     3     4   ar
     4     4     5   ar
     5     5     6   ar
     6     6     7    1
     7     7     8    1
     8     8     9    1
     9     9    10    1
    10    10    11    1
    11    11    12    1
    12    12    13    1
    13    12    14    1
    14    15    14    1
    15    15    16    1
    16    16    17    1
    17    17    18    1
    18    18    19   ar
    19    19    20   ar
    20    20    21   ar
    21    21    22   ar
    22    22    23   ar
    23    23    32    1
    24    32    33   am
    25    32    34    2
    26     4    24    1
    27    24    25    1
    28    25    26    1
    29    25    27    1
    30    25    28    1
    31    28    29    1
    32    29    30    2
    33     6     2   ar
    34    15    10    1
    35    23    18   ar
    36    29     3    1
    37    20     5    1
    38    17    31    1
    39    33    35    1
    40    33    36    1
@<TRIPOS>MOLECULE
*****
 36 40 0 0 0
SMALL
GASTEIGER

@<TRIPOS>ATOM
      1 C         141.1816  137.6203  157.9065 C.3     1  UNL1        0.0323
      2 C         141.9388  138.7562  158.5280 C.ar    1  UNL1       -0.0060
      3 C         143.0074  139.5722  157.8630 C.ar    1  UNL1        0.0438
      4 C         143.4894  140.5959  158.8477 C.ar    1  UNL1        0.0435
      5 N         142.7187  140.4125  160.1215 N.ar    1  UNL1       -0.3137
      6 C         141.7605  139.2757  159.9239 C.ar    1  UNL1        0.0372
      7 C         140.6811  138.3794  160.4546 C.3     1  UNL1        0.0452
      8 C         139.7698  137.9639  161.5713 C.3     1  UNL1        0.0236
      9 C         139.2708  138.1406  162.9747 C.3     1  UNL1        0.0726
     10 N         139.3178  138.8621  164.2889 N.3     1  UNL1       -0.2700
     11 C         138.2718  138.1354  165.0813 C.3     1  UNL1        0.1078
     12 C         138.2056  138.7593  166.4438 C.3     1  UNL1        0.1782
     13 F         137.2944  138.3439  167.5605 F       1  UNL1       -0.2357
     14 C         139.2109  139.8716  166.4935 C.3     1  UNL1        0.0544
     15 C         139.8982  139.9351  165.1618 C.3     1  UNL1        0.0799
     16 C         140.8565  141.0721  165.3593 C.3     1  UNL1        0.1033
     17 N         141.9358  141.9683  164.8287 N.pl3   1  UNL1       -0.3314
     18 C         142.8472  142.3838  163.7120 C.ar    1  UNL1        0.0505
     19 C         142.5224  141.4549  162.5799 C.ar    1  UNL1        0.0319
     20 C         143.2524  141.5785  161.2754 C.ar    1  UNL1        0.0646
     21 C         144.3072  142.6309  161.1030 C.ar    1  UNL1        0.0177
     22 C         144.6319  143.5598  162.2350 C.ar    1  UNL1        0.0072
     23 C         143.9019  143.4362  163.5395 C.ar    1  UNL1        0.0663
     24 C         144.5678  141.5626  158.4573 C.3     1  UNL1        0.0446
     25 C         145.1642  141.5058  157.0822 C.3     1  UNL1        0.0128
     26 C         146.0328  141.8453  155.9073 C.3     1  UNL1        0.0008
     27 C         145.9478  142.6473  157.6589 C.3     1  UNL1        0.0008
     28 C         144.6822  140.4821  156.0974 C.3     1  UNL1        0.0695
     29 C         143.6039  139.5153  156.4878 C.2     1  UNL1        0.1739
     30 O         143.1219  138.4916  155.5030 O.2     1  UNL1       -0.2913
     31 H         142.1490  142.5780  165.5717 H       1  UNL1        0.1469
     32 C         144.2267  144.3652  164.6717 C.2     1  UNL1        0.2439
     33 N         144.8644  143.8316  165.9202 N.am    1  UNL1       -0.3253
     34 O         143.9138  145.8275  164.5554 O.2     1  UNL1       -0.2703
     35 H         145.0698  142.8718  165.9966 H       1  UNL1        0.1453
     36 H         145.0775  144.4413  166.6633 H       1  UNL1        0.1453
@<TRIPOS>BOND
     1     1     2    1
     2     2     3   ar
     3     3     4   ar
     4     4     5   ar
     5     5     6   ar
     6     6     7    1
     7     7     8    1
     8     8     9    1
     9     9    10    1
    10    10    11    1
    11    11    12    1
    12    12    13    1
    13    12    14    1
    14    15    14    1
    15    15    16    1
    16    16    17    1
    17    17    18    1
    18    18    19   ar
    19    19    20   ar
    20    20    21   ar
    21    21    22   ar
    22    22    23   ar
    23    23    32    1
    24    32    33   am
    25    32    34    2
    26     4    24    1
    27    24    25    1
    28    25    26    1
    29    25    27    1
    30    25    28    1
    31    28    29    1
    32    29    30    2
    33     6     2   ar
    34    15    10    1
    35    23    18   ar
    36    29     3    1
    37    20     5    1
    38    17    31    1
    39    33    35    1
    40    33    36    1
@<TRIPOS>MOLECULE
*****
 36 40 0 0 0
SMALL
GASTEIGER

@<TRIPOS>ATOM
      1 C         142.8885  136.8408  158.4147 C.3     1  UNL1        0.0323
      2 C         142.6966  138.3284  158.4247 C.ar    1  UNL1       -0.0060
      3 C         143.1739  139.2861  157.3735 C.ar    1  UNL1        0.0438
      4 C         142.7660  140.6692  157.7867 C.ar    1  UNL1        0.0435
      5 N         142.0366  140.5663  159.0934 N.ar    1  UNL1       -0.3137
      6 C         141.9937  139.1197  159.4876 C.ar    1  UNL1        0.0372
      7 C         141.5800  138.0478  160.4520 C.3     1  UNL1        0.0452
      8 C         140.9064  137.6379  161.7280 C.3     1  UNL1        0.0236
      9 C         140.1533  137.9997  162.9737 C.3     1  UNL1        0.0726
     10 N         139.5226  139.0364  163.8555 N.3     1  UNL1       -0.2700
     11 C         138.9868  138.2035  164.9821 C.3     1  UNL1        0.1078
     12 C         138.3163  139.1225  165.9599 C.3     1  UNL1        0.1782
     13 F         137.6427  138.7126  167.2358 F       1  UNL1       -0.2357
     14 C         138.4377  140.5234  165.4374 C.3     1  UNL1        0.0544
     15 C         139.1832  140.4702  164.1369 C.3     1  UNL1        0.0799
     16 C         139.2261  141.9168  163.7426 C.3     1  UNL1        0.1033
     17 N         139.6398  142.9886  162.7783 N.pl3   1  UNL1       -0.3314
     18 C         140.3134  143.3986  161.5023 C.ar    1  UNL1        0.0505
     19 C         140.8156  142.1198  160.9002 C.ar    1  UNL1        0.0319
     20 C         141.5540  142.1447  159.5949 C.ar    1  UNL1        0.0646
     21 C         141.7904  143.4484  158.8916 C.ar    1  UNL1        0.0177
     22 C         141.2882  144.7271  159.4937 C.ar    1  UNL1        0.0072
     23 C         140.5497  144.7022  160.7990 C.ar    1  UNL1        0.0663
     24 C         143.1115  141.8435  156.9198 C.3     1  UNL1        0.0446
     25 C         143.8649  141.6349  155.6397 C.3     1  UNL1        0.0128
     26 C         144.5606  141.9438  154.3471 C.3     1  UNL1        0.0008
     27 C         143.6986  143.1251  155.6040 C.3     1  UNL1        0.0008
     28 C         144.2728  140.2518  155.2264 C.3     1  UNL1        0.0695
     29 C         143.9274  139.0775  156.0933 C.2     1  UNL1        0.1739
     30 O         144.3353  137.6944  155.6800 O.2     1  UNL1       -0.2913
     31 H         139.3102  143.8280  163.1735 H       1  UNL1        0.1469
     32 C         140.0475  145.9811  161.4011 C.2     1  UNL1        0.2439
     33 N         140.5567  146.4311  162.7384 N.am    1  UNL1       -0.3253
     34 O         139.0363  146.8098  160.6660 O.2     1  UNL1       -0.2703
     35 H         141.2204  145.8871  163.2209 H       1  UNL1        0.1453
     36 H         140.2271  147.2704  163.1336 H       1  UNL1        0.1453
@<TRIPOS>BOND
     1     1     2    1
     2     2     3   ar
     3     3     4   ar
     4     4     5   ar
     5     5     6   ar
     6     6     7    1
     7     7     8    1
     8     8     9    1
     9     9    10    1
    10    10    11    1
    11    11    12    1
    12    12    13    1
    13    12    14    1
    14    15    14    1
    15    15    16    1
    16    16    17    1
    17    17    18    1
    18    18    19   ar
    19    19    20   ar
    20    20    21   ar
    21    21    22   ar
    22    22    23   ar
    23    23    32    1
    24    32    33   am
    25    32    34    2
    26     4    24    1
    27    24    25    1
    28    25    26    1
    29    25    27    1
    30    25    28    1
    31    28    29    1
    32    29    30    2
    33     6     2   ar
    34    15    10    1
    35    23    18   ar
    36    29     3    1
    37    20     5    1
    38    17    31    1
    39    33    35    1
    40    33    36    1
@<TRIPOS>MOLECULE
*****
 36 40 0 0 0
SMALL
GASTEIGER

@<TRIPOS>ATOM
      1 C         141.6167  144.2475  163.7428 C.3     1  UNL1        0.0323
      2 C         141.3671  143.0017  162.9456 C.ar    1  UNL1       -0.0060
      3 C         141.4682  141.5942  163.4543 C.ar    1  UNL1        0.0438
      4 C         141.1361  140.6673  162.3227 C.ar    1  UNL1        0.0435
      5 N         140.8299  141.5019  161.1145 N.ar    1  UNL1       -0.3137
      6 C         140.9726  142.9445  161.4994 C.ar    1  UNL1        0.0372
      7 C         140.9121  144.3984  161.1351 C.3     1  UNL1        0.0452
      8 C         140.6644  145.4738  160.1191 C.3     1  UNL1        0.0236
      9 C         140.2960  145.8825  158.7238 C.3     1  UNL1        0.0726
     10 N         139.9056  145.5152  157.3228 N.3     1  UNL1       -0.2700
     11 C         139.7651  146.8608  156.6751 C.3     1  UNL1        0.1078
     12 C         139.3705  146.6475  155.2437 C.3     1  UNL1        0.1782
     13 F         139.1228  147.7228  154.2278 F       1  UNL1       -0.2357
     14 C         139.2670  145.1699  155.0068 C.3     1  UNL1        0.0544
     15 C         139.5977  144.4701  156.2917 C.3     1  UNL1        0.0799
     16 C         139.4550  143.0274  155.9068 C.3     1  UNL1        0.1033
     17 N         139.5155  141.5736  156.2711 N.pl3   1  UNL1       -0.3314
     18 C         139.7632  140.4982  157.2871 C.ar    1  UNL1        0.0505
     19 C         140.1247  141.2293  158.5460 C.ar    1  UNL1        0.0319
     20 C         140.4436  140.4611  159.7942 C.ar    1  UNL1        0.0646
     21 C         140.4010  138.9617  159.7836 C.ar    1  UNL1        0.0177
     22 C         140.0396  138.2306  158.5247 C.ar    1  UNL1        0.0072
     23 C         139.7207  138.9989  157.2765 C.ar    1  UNL1        0.0663
     24 C         141.1556  139.1831  162.5386 C.3     1  UNL1        0.0446
     25 C         141.5070  138.6257  163.8861 C.3     1  UNL1        0.0128
     26 C         141.7756  137.6258  164.9716 C.3     1  UNL1        0.0008
     27 C         141.2683  137.3516  163.1315 C.3     1  UNL1        0.0008
     28 C         141.8391  139.5526  165.0177 C.3     1  UNL1        0.0695
     29 C         141.8197  141.0368  164.8019 C.2     1  UNL1        0.1739
     30 O         142.1517  141.9638  165.9335 O.2     1  UNL1       -0.2913
     31 H         139.2783  141.0938  155.4449 H       1  UNL1        0.1469
     32 C         139.3592  138.2678  156.0175 C.2     1  UNL1        0.2439
     33 N         138.9483  136.8264  156.0789 N.am    1  UNL1       -0.3253
     34 O         139.4087  138.9779  154.6973 O.2     1  UNL1       -0.2703
     35 H         138.9158  136.3603  156.9455 H       1  UNL1        0.1453
     36 H         138.7111  136.3466  155.2527 H       1  UNL1        0.1453
@<TRIPOS>BOND
     1     1     2    1
     2     2     3   ar
     3     3     4   ar
     4     4     5   ar
     5     5     6   ar
     6     6     7    1
     7     7     8    1
     8     8     9    1
     9     9    10    1
    10    10    11    1
    11    11    12    1
    12    12    13    1
    13    12    14    1
    14    15    14    1
    15    15    16    1
    16    16    17    1
    17    17    18    1
    18    18    19   ar
    19    19    20   ar
    20    20    21   ar
    21    21    22   ar
    22    22    23   ar
    23    23    32    1
    24    32    33   am
    25    32    34    2
    26     4    24    1
    27    24    25    1
    28    25    26    1
    29    25    27    1
    30    25    28    1
    31    28    29    1
    32    29    30    2
    33     6     2   ar
    34    15    10    1
    35    23    18   ar
    36    29     3    1
    37    20     5    1
    38    17    31    1
    39    33    35    1
    40    33    36    1
@<TRIPOS>MOLECULE
*****
 36 40 0 0 0
SMALL
GASTEIGER

@<TRIPOS>ATOM
      1 C         139.2242  144.9383  166.6990 C.3     1  UNL1        0.0323
      2 C         140.0189  143.7478  166.2509 C.ar    1  UNL1       -0.0060
      3 C         140.5420  142.6537  167.1338 C.ar    1  UNL1        0.0438
      4 C         141.2765  141.6719  166.2697 C.ar    1  UNL1        0.0435
      5 N         141.2073  142.1592  164.8527 N.ar    1  UNL1       -0.3137
      6 C         140.4302  143.4420  164.8411 C.ar    1  UNL1        0.0372
      7 C         139.8470  144.6008  164.0880 C.3     1  UNL1        0.0452
      8 C         139.6142  145.3249  162.7951 C.3     1  UNL1        0.0236
      9 C         139.7940  145.4204  161.3091 C.3     1  UNL1        0.0726
     10 N         140.3384  144.8616  160.0278 N.3     1  UNL1       -0.2700
     11 C         139.8811  145.8789  159.0248 C.3     1  UNL1        0.1078
     12 C         140.3616  145.4443  157.6718 C.3     1  UNL1        0.1782
     13 F         140.1287  146.1684  156.3790 F       1  UNL1       -0.2357
     14 C         141.1157  144.1584  157.8388 C.3     1  UNL1        0.0544
     15 C         141.1014  143.7983  159.2948 C.3     1  UNL1        0.0799
     16 C         141.8786  142.5154  159.3065 C.3     1  UNL1        0.1033
     17 N         142.4617  141.3567  160.0596 N.pl3   1  UNL1       -0.3314
     18 C         142.6946  140.6326  161.3525 C.ar    1  UNL1        0.0505
     19 C         142.0178  141.4722  162.3951 C.ar    1  UNL1        0.0319
     20 C         142.0453  141.0480  163.8335 C.ar    1  UNL1        0.0646
     21 C         142.7494  139.7841  164.2294 C.ar    1  UNL1        0.0177
     22 C         143.4262  138.9444  163.1869 C.ar    1  UNL1        0.0072
     23 C         143.3987  139.3687  161.7484 C.ar    1  UNL1        0.0663
     24 C         141.9133  140.4612  166.8849 C.3     1  UNL1        0.0446
     25 C         141.8157  140.2321  168.3640 C.3     1  UNL1        0.0128
     26 C         141.9948  139.5839  169.7049 C.3     1  UNL1        0.0008
     27 C         142.6124  139.0252  167.9656 C.3     1  UNL1        0.0008
     28 C         141.0812  141.2139  169.2281 C.3     1  UNL1        0.0695
     29 C         140.4444  142.4246  168.6130 C.2     1  UNL1        0.1739
     30 O         139.7099  143.4064  169.4771 O.2     1  UNL1       -0.2913
     31 H         142.9059  140.8056  159.3753 H       1  UNL1        0.1469
     32 C         144.0755  138.5290  160.7057 C.2     1  UNL1        0.2439
     33 N         144.6688  137.2031  161.0796 N.am    1  UNL1       -0.3253
     34 O         144.1589  139.0154  159.2892 O.2     1  UNL1       -0.2703
     35 H         144.6140  136.8839  162.0094 H       1  UNL1        0.1453
     36 H         145.1130  136.6520  160.3953 H       1  UNL1        0.1453
@<TRIPOS>BOND
     1     1     2    1
     2     2     3   ar
     3     3     4   ar
     4     4     5   ar
     5     5     6   ar
     6     6     7    1
     7     7     8    1
     8     8     9    1
     9     9    10    1
    10    10    11    1
    11    11    12    1
    12    12    13    1
    13    12    14    1
    14    15    14    1
    15    15    16    1
    16    16    17    1
    17    17    18    1
    18    18    19   ar
    19    19    20   ar
    20    20    21   ar
    21    21    22   ar
    22    22    23   ar
    23    23    32    1
    24    32    33   am
    25    32    34    2
    26     4    24    1
    27    24    25    1
    28    25    26    1
    29    25    27    1
    30    25    28    1
    31    28    29    1
    32    29    30    2
    33     6     2   ar
    34    15    10    1
    35    23    18   ar
    36    29     3    1
    37    20     5    1
    38    17    31    1
    39    33    35    1
    40    33    36    1
@<TRIPOS>MOLECULE
*****
 36 40 0 0 0
SMALL
GASTEIGER

@<TRIPOS>ATOM
      1 C         137.8256  140.9557  157.2126 C.3     1  UNL1        0.0323
      2 C         138.9557  140.3035  157.9524 C.ar    1  UNL1       -0.0060
      3 C         139.8369  139.2084  157.4286 C.ar    1  UNL1        0.0438
      4 C         140.8289  138.8600  158.4984 C.ar    1  UNL1        0.0435
      5 N         140.5609  139.7398  159.6834 N.ar    1  UNL1       -0.3137
      6 C         139.4033  140.6319  159.3460 C.ar    1  UNL1        0.0372
      7 C         138.4478  141.7221  159.7315 C.3     1  UNL1        0.0452
      8 C         137.9507  142.7182  160.7368 C.3     1  UNL1        0.0236
      9 C         138.0450  143.3534  162.0923 C.3     1  UNL1        0.0726
     10 N         138.7056  143.4574  163.4350 N.3     1  UNL1       -0.2700
     11 C         137.9084  144.5454  164.0914 C.3     1  UNL1        0.1078
     12 C         138.4654  144.7628  165.4671 C.3     1  UNL1        0.1782
     13 F         137.9683  145.7589  166.4723 F       1  UNL1       -0.2357
     14 C         139.6069  143.8091  165.6609 C.3     1  UNL1        0.0544
     15 C         139.7554  143.0023  164.4051 C.3     1  UNL1        0.0799
     16 C         140.9130  142.1102  164.7425 C.3     1  UNL1        0.1033
     17 N         141.8684  141.0200  164.3570 N.pl3   1  UNL1       -0.3314
     18 C         142.3655  140.0239  163.3517 C.ar    1  UNL1        0.0505
     19 C         141.4802  140.2056  162.1545 C.ar    1  UNL1        0.0319
     20 C         141.6887  139.3612  160.9325 C.ar    1  UNL1        0.0646
     21 C         142.7825  138.3350  160.9076 C.ar    1  UNL1        0.0177
     22 C         143.6679  138.1533  162.1047 C.ar    1  UNL1        0.0072
     23 C         143.4593  138.9977  163.3268 C.ar    1  UNL1        0.0663
     24 C         141.8481  137.7866  158.2552 C.3     1  UNL1        0.0446
     25 C         141.8753  137.0617  156.9424 C.3     1  UNL1        0.0128
     26 C         142.2980  136.0997  155.8719 C.3     1  UNL1        0.0008
     27 C         143.0141  136.3792  157.6404 C.3     1  UNL1        0.0008
     28 C         140.8833  137.4101  155.8726 C.3     1  UNL1        0.0695
     29 C         139.8641  138.4834  156.1157 C.2     1  UNL1        0.1739
     30 O         138.8720  138.8319  155.0459 O.2     1  UNL1       -0.2913
     31 H         142.4494  140.9008  165.1427 H       1  UNL1        0.1469
     32 C         144.3447  138.8160  164.5240 C.2     1  UNL1        0.2439
     33 N         145.7914  139.2059  164.4530 N.am    1  UNL1       -0.3253
     34 O         143.7833  138.2445  165.7921 O.2     1  UNL1       -0.2703
     35 H         146.1598  139.5811  163.6207 H       1  UNL1        0.1453
     36 H         146.3725  139.0867  165.2387 H       1  UNL1        0.1453
@<TRIPOS>BOND
     1     1     2    1
     2     2     3   ar
     3     3     4   ar
     4     4     5   ar
     5     5     6   ar
     6     6     7    1
     7     7     8    1
     8     8     9    1
     9     9    10    1
    10    10    11    1
    11    11    12    1
    12    12    13    1
    13    12    14    1
    14    15    14    1
    15    15    16    1
    16    16    17    1
    17    17    18    1
    18    18    19   ar
    19    19    20   ar
    20    20    21   ar
    21    21    22   ar
    22    22    23   ar
    23    23    32    1
    24    32    33   am
    25    32    34    2
    26     4    24    1
    27    24    25    1
    28    25    26    1
    29    25    27    1
    30    25    28    1
    31    28    29    1
    32    29    30    2
    33     6     2   ar
    34    15    10    1
    35    23    18   ar
    36    29     3    1
    37    20     5    1
    38    17    31    1
    39    33    35    1
    40    33    36    1
@<TRIPOS>MOLECULE
*****
 36 40 0 0 0
SMALL
GASTEIGER

@<TRIPOS>ATOM
      1 C         140.2951  144.7554  164.6465 C.3     1  UNL1        0.0323
      2 C         140.8582  143.5318  163.9866 C.ar    1  UNL1       -0.0060
      3 C         141.3602  142.3041  164.6871 C.ar    1  UNL1        0.0438
      4 C         141.8305  141.3345  163.6437 C.ar    1  UNL1        0.0435
      5 N         141.6191  141.9630  162.2982 N.ar    1  UNL1       -0.3137
      6 C         141.0182  143.3209  162.5101 C.ar    1  UNL1        0.0372
      7 C         140.4843  144.6067  161.9518 C.3     1  UNL1        0.0452
      8 C         140.1605  145.4758  160.7729 C.3     1  UNL1        0.0236
      9 C         140.1334  145.6953  159.2894 C.3     1  UNL1        0.0726
     10 N         140.4105  145.2065  157.8986 N.3     1  UNL1       -0.2700
     11 C         139.9458  146.3626  157.0633 C.3     1  UNL1        0.1078
     12 C         140.1655  146.0108  155.6217 C.3     1  UNL1        0.1782
     13 F         139.8417  146.8799  154.4429 F       1  UNL1       -0.2357
     14 C         140.7660  144.6373  155.5661 C.3     1  UNL1        0.0544
     15 C         140.9174  144.1402  156.9732 C.3     1  UNL1        0.0799
     16 C         141.5183  142.7823  156.7613 C.3     1  UNL1        0.1033
     17 N         142.0521  141.4966  157.3196 N.pl3   1  UNL1       -0.3314
     18 C         142.3760  140.6274  158.4985 C.ar    1  UNL1        0.0505
     19 C         141.9702  141.4324  159.6974 C.ar    1  UNL1        0.0319
     20 C         142.1518  140.8689  161.0756 C.ar    1  UNL1        0.0646
     21 C         142.7393  139.5004  161.2549 C.ar    1  UNL1        0.0177
     22 C         143.1450  138.6954  160.0560 C.ar    1  UNL1        0.0072
     23 C         142.9634  139.2589  158.6778 C.ar    1  UNL1        0.0663
     24 C         142.3904  140.0047  164.0536 C.3     1  UNL1        0.0446
     25 C         142.4801  139.6444  165.5068 C.3     1  UNL1        0.0128
     26 C         142.7678  138.8518  166.7474 C.3     1  UNL1        0.0008
     27 C         143.0503  138.3996  164.8943 C.3     1  UNL1        0.0008
     28 C         142.0099  140.6140  166.5503 C.3     1  UNL1        0.0695
     29 C         141.4500  141.9438  166.1405 C.2     1  UNL1        0.1739
     30 O         140.9797  142.9134  167.1839 O.2     1  UNL1       -0.2913
     31 H         142.3185  140.9682  156.5327 H       1  UNL1        0.1469
     32 C         143.3692  138.4539  157.4789 C.2     1  UNL1        0.2439
     33 N         143.0271  136.9954  157.4041 N.am    1  UNL1       -0.3253
     34 O         144.1170  139.1075  156.3548 O.2     1  UNL1       -0.2703
     35 H         142.5363  136.5664  158.1418 H       1  UNL1        0.1453
     36 H         143.2934  136.4671  156.6172 H       1  UNL1        0.1453
@<TRIPOS>BOND
     1     1     2    1
     2     2     3   ar
     3     3     4   ar
     4     4     5   ar
     5     5     6   ar
     6     6     7    1
     7     7     8    1
     8     8     9    1
     9     9    10    1
    10    10    11    1
    11    11    12    1
    12    12    13    1
    13    12    14    1
    14    15    14    1
    15    15    16    1
    16    16    17    1
    17    17    18    1
    18    18    19   ar
    19    19    20   ar
    20    20    21   ar
    21    21    22   ar
    22    22    23   ar
    23    23    32    1
    24    32    33   am
    25    32    34    2
    26     4    24    1
    27    24    25    1
    28    25    26    1
    29    25    27    1
    30    25    28    1
    31    28    29    1
    32    29    30    2
    33     6     2   ar
    34    15    10    1
    35    23    18   ar
    36    29     3    1
    37    20     5    1
    38    17    31    1
    39    33    35    1
    40    33    36    1
