@<TRIPOS>MOLECULE
*****
 34 39 0 0 0
SMALL
GASTEIGER

@<TRIPOS>ATOM
      1 CL        143.5040  142.5170  168.4653 Cl      1  UNL1       -0.0598
      2 C         142.1932  141.9051  168.8619 C.ar    1  UNL1        0.1540
      3 N         141.6498  142.1253  170.2425 N.ar    1  UNL1       -0.2310
      4 C         140.3390  141.5134  170.6390 C.ar    1  UNL1        0.0999
      5 C         139.5714  140.6814  169.6549 C.ar    1  UNL1        0.0223
      6 C         140.1148  140.4612  168.2742 C.ar    1  UNL1        0.0241
      7 C         139.5866  139.6944  167.0982 C.ar    1  UNL1        0.0550
      8 C         138.3365  138.8883  166.9051 C.ar    1  UNL1        0.1048
      9 N         138.0707  138.2201  165.5887 N.ar    1  UNL1       -0.2119
     10 C         139.0552  138.3581  164.4653 C.ar    1  UNL1        0.2231
     11 N         140.3053  139.1641  164.6584 N.ar    1  UNL1       -0.1961
     12 C         140.5711  139.8323  165.9749 C.ar    1  UNL1        0.1482
     13 N         141.7076  140.6844  166.4567 N.ar    1  UNL1       -0.3125
     14 C         141.4257  141.0731  167.8777 C.ar    1  UNL1        0.0898
     15 C         142.9144  141.0786  165.6576 C.3     1  UNL1        0.0869
     16 C         143.9477  140.1440  165.1020 C.3     1  UNL1        0.0226
     17 C         144.9716  140.9644  164.3750 C.3     1  UNL1        0.0020
     18 C         144.5711  142.4061  164.4812 C.3     1  UNL1        0.0020
     19 C         143.2996  142.4765  165.2740 C.3     1  UNL1        0.0226
     20 N         138.7894  137.6899  163.1489 N.pl3   1  UNL1       -0.2679
     21 H         138.0193  137.0845  163.0507 H       1  UNL1        0.1565
     22 C         139.6970  137.9442  161.9821 C.ar    1  UNL1        0.1344
     23 C         139.1649  138.6139  160.7499 C.ar    1  UNL1        0.0358
     24 C         140.0726  138.8682  159.5831 C.ar    1  UNL1        0.0190
     25 C         141.5125  138.4527  159.6485 C.ar    1  UNL1        0.0675
     26 C         142.0446  137.7830  160.8807 C.ar    1  UNL1        0.1147
     27 N         141.1369  137.5287  162.0475 N.ar    1  UNL1       -0.2277
     28 N         142.4202  138.7070  158.4817 N.pl3   1  UNL1       -0.3035
     29 C         142.4993  137.7118  157.3622 C.3     1  UNL1        0.1079
     30 C         143.4070  137.9660  156.1954 C.3     1  UNL1        0.0903
     31 N         144.2356  139.2154  156.1482 N.3     1  UNL1       -0.2946
     32 C         144.1566  140.2106  157.2677 C.3     1  UNL1        0.0903
     33 C         143.2489  139.9564  158.4344 C.3     1  UNL1        0.1079
     34 H         143.9740  139.7101  155.2954 H       1  UNL1        0.1233
@<TRIPOS>BOND
     1     1     2    1
     2     2     3   ar
     3     3     4   ar
     4     4     5   ar
     5     5     6   ar
     6     6     7   ar
     7     7     8   ar
     8     8     9   ar
     9     9    10   ar
    10    10    20    1
    11    20    22    1
    12    22    23   ar
    13    23    24   ar
    14    24    25   ar
    15    25    28    1
    16    28    29    1
    17    29    30    1
    18    30    31    1
    19    31    32    1
    20    32    33    1
    21    25    26   ar
    22    26    27   ar
    23    10    11   ar
    24    11    12   ar
    25    12    13   ar
    26    13    15    1
    27    15    16    1
    28    16    17    1
    29    17    18    1
    30    18    19    1
    31    13    14   ar
    32    14     2   ar
    33    14     6   ar
    34    12     7   ar
    35    19    15    1
    36    27    22   ar
    37    33    28    1
    38    20    21    1
    39    31    34    1
@<TRIPOS>MOLECULE
*****
 34 39 0 0 0
SMALL
GASTEIGER

@<TRIPOS>ATOM
      1 CL        138.1289  138.5273  166.0217 Cl      1  UNL1       -0.0598
      2 C         139.0430  139.5216  166.6743 C.ar    1  UNL1        0.1540
      3 N         139.0676  139.6497  168.1685 N.ar    1  UNL1       -0.2310
      4 C         139.9818  140.6440  168.8211 C.ar    1  UNL1        0.0999
      5 C         140.8713  141.5101  167.9793 C.ar    1  UNL1        0.0223
      6 C         140.8467  141.3819  166.4851 C.ar    1  UNL1        0.0241
      7 C         141.6040  142.0944  165.4039 C.ar    1  UNL1        0.0550
      8 C         142.6422  143.1760  165.4515 C.ar    1  UNL1        0.1048
      9 N         143.2344  143.7037  164.1783 N.ar    1  UNL1       -0.2119
     10 C         142.7884  143.1497  162.8576 C.ar    1  UNL1        0.2231
     11 N         141.7502  142.0682  162.8101 N.ar    1  UNL1       -0.1961
     12 C         141.1580  141.5405  164.0832 C.ar    1  UNL1        0.1482
     13 N         140.1250  140.4857  164.3481 N.ar    1  UNL1       -0.3125
     14 C         139.9325  140.3877  165.8325 C.ar    1  UNL1        0.0898
     15 C         139.4099  139.6717  163.3108 C.3     1  UNL1        0.0869
     16 C         138.1108  140.0288  162.6512 C.3     1  UNL1        0.0226
     17 C         137.7664  138.9356  161.6837 C.3     1  UNL1        0.0020
     18 C         138.8525  137.9028  161.7452 C.3     1  UNL1        0.0020
     19 C         139.8682  138.3579  162.7508 C.3     1  UNL1        0.0226
     20 N         143.3806  143.6774  161.5845 N.pl3   1  UNL1       -0.2679
     21 H         144.3580  143.7410  161.4855 H       1  UNL1        0.1565
     22 C         142.4835  144.1083  160.4622 C.ar    1  UNL1        0.1344
     23 C         141.2489  144.9086  160.7539 C.ar    1  UNL1        0.0358
     24 C         140.3518  145.3395  159.6316 C.ar    1  UNL1        0.0190
     25 C         140.6893  144.9699  158.2175 C.ar    1  UNL1        0.0675
     26 C         141.9239  144.1696  157.9258 C.ar    1  UNL1        0.1147
     27 N         142.8211  143.7387  159.0482 N.ar    1  UNL1       -0.2277
     28 N         139.7922  145.4008  157.0952 N.pl3   1  UNL1       -0.3035
     29 C         139.0307  144.3758  156.3081 C.3     1  UNL1        0.1079
     30 C         138.1336  144.8066  155.1858 C.3     1  UNL1        0.0903
     31 N         137.9981  146.2623  154.8505 N.3     1  UNL1       -0.2946
     32 C         138.7597  147.2873  155.6376 C.3     1  UNL1        0.0903
     33 C         139.6567  146.8565  156.7599 C.3     1  UNL1        0.1079
     34 H         137.0093  146.4950  154.9431 H       1  UNL1        0.1233
@<TRIPOS>BOND
     1     1     2    1
     2     2     3   ar
     3     3     4   ar
     4     4     5   ar
     5     5     6   ar
     6     6     7   ar
     7     7     8   ar
     8     8     9   ar
     9     9    10   ar
    10    10    20    1
    11    20    22    1
    12    22    23   ar
    13    23    24   ar
    14    24    25   ar
    15    25    28    1
    16    28    29    1
    17    29    30    1
    18    30    31    1
    19    31    32    1
    20    32    33    1
    21    25    26   ar
    22    26    27   ar
    23    10    11   ar
    24    11    12   ar
    25    12    13   ar
    26    13    15    1
    27    15    16    1
    28    16    17    1
    29    17    18    1
    30    18    19    1
    31    13    14   ar
    32    14     2   ar
    33    14     6   ar
    34    12     7   ar
    35    19    15    1
    36    27    22   ar
    37    33    28    1
    38    20    21    1
    39    31    34    1
@<TRIPOS>MOLECULE
*****
 34 39 0 0 0
SMALL
GASTEIGER

@<TRIPOS>ATOM
      1 CL        141.1158  145.4975  159.5703 Cl      1  UNL1       -0.0598
      2 C         140.2337  144.4513  158.9559 C.ar    1  UNL1        0.1540
      3 N         139.7570  144.6081  157.5423 N.ar    1  UNL1       -0.2310
      4 C         138.8749  143.5619  156.9280 C.ar    1  UNL1        0.0999
      5 C         138.4694  142.3591  157.7271 C.ar    1  UNL1        0.0223
      6 C         138.9461  142.2023  159.1407 C.ar    1  UNL1        0.0241
      7 C         138.7127  141.1325  160.1659 C.ar    1  UNL1        0.0550
      8 C         137.9236  139.8576  160.1242 C.ar    1  UNL1        0.1048
      9 N         137.8723  138.9675  161.3306 N.ar    1  UNL1       -0.2119
     10 C         138.6101  139.3524  162.5785 C.ar    1  UNL1        0.2231
     11 N         139.3992  140.6274  162.6202 N.ar    1  UNL1       -0.1961
     12 C         139.4505  141.5174  161.4138 C.ar    1  UNL1        0.1482
     13 N         140.1400  142.8252  161.1599 N.ar    1  UNL1       -0.3125
     14 C         139.8282  143.2485  159.7550 C.ar    1  UNL1        0.0898
     15 C         140.9916  143.5776  162.1390 C.3     1  UNL1        0.0869
     16 C         140.5170  144.6383  163.0875 C.3     1  UNL1        0.0226
     17 C         141.6994  145.1176  163.8762 C.3     1  UNL1        0.0020
     18 C         142.9049  144.3532  163.4152 C.3     1  UNL1        0.0020
     19 C         142.4673  143.4014  162.3415 C.3     1  UNL1        0.0226
     20 N         138.5588  138.4624  163.7849 N.pl3   1  UNL1       -0.2679
     21 H         138.1311  137.5776  163.7260 H       1  UNL1        0.1565
     22 C         139.1592  138.9205  165.0808 C.ar    1  UNL1        0.1344
     23 C         138.2770  139.1801  166.2658 C.ar    1  UNL1        0.0358
     24 C         138.8774  139.6382  167.5619 C.ar    1  UNL1        0.0190
     25 C         140.3601  139.8367  167.6729 C.ar    1  UNL1        0.0675
     26 C         141.2423  139.5771  166.4879 C.ar    1  UNL1        0.1147
     27 N         140.6419  139.1189  165.1918 N.ar    1  UNL1       -0.2277
     28 N         140.9605  140.2947  168.9689 N.pl3   1  UNL1       -0.3035
     29 C         140.2395  141.3018  169.8150 C.3     1  UNL1        0.1079
     30 C         140.8399  141.7598  171.1110 C.3     1  UNL1        0.0903
     31 N         142.1613  141.2109  171.5609 N.3     1  UNL1       -0.2946
     32 C         142.8824  140.2039  170.7147 C.3     1  UNL1        0.0903
     33 C         142.2820  139.7458  169.4188 C.3     1  UNL1        0.1079
     34 H         142.0049  140.7742  172.4693 H       1  UNL1        0.1233
@<TRIPOS>BOND
     1     1     2    1
     2     2     3   ar
     3     3     4   ar
     4     4     5   ar
     5     5     6   ar
     6     6     7   ar
     7     7     8   ar
     8     8     9   ar
     9     9    10   ar
    10    10    20    1
    11    20    22    1
    12    22    23   ar
    13    23    24   ar
    14    24    25   ar
    15    25    28    1
    16    28    29    1
    17    29    30    1
    18    30    31    1
    19    31    32    1
    20    32    33    1
    21    25    26   ar
    22    26    27   ar
    23    10    11   ar
    24    11    12   ar
    25    12    13   ar
    26    13    15    1
    27    15    16    1
    28    16    17    1
    29    17    18    1
    30    18    19    1
    31    13    14   ar
    32    14     2   ar
    33    14     6   ar
    34    12     7   ar
    35    19    15    1
    36    27    22   ar
    37    33    28    1
    38    20    21    1
    39    31    34    1
@<TRIPOS>MOLECULE
*****
 34 39 0 0 0
SMALL
GASTEIGER

@<TRIPOS>ATOM
      1 CL        143.5472  142.5162  168.3609 Cl      1  UNL1       -0.0598
      2 C         142.2190  141.9588  168.7796 C.ar    1  UNL1        0.1540
      3 N         141.6657  142.2784  170.1367 N.ar    1  UNL1       -0.2310
      4 C         140.3375  141.7210  170.5554 C.ar    1  UNL1        0.0999
      5 C         139.5627  140.8440  169.6171 C.ar    1  UNL1        0.0223
      6 C         140.1161  140.5244  168.2600 C.ar    1  UNL1        0.0241
      7 C         139.5840  139.6951  167.1290 C.ar    1  UNL1        0.0550
      8 C         138.3187  138.9049  166.9724 C.ar    1  UNL1        0.1048
      9 N         138.0527  138.1596  165.6982 N.ar    1  UNL1       -0.2119
     10 C         139.0520  138.2044  164.5805 C.ar    1  UNL1        0.2231
     11 N         140.3174  138.9946  164.7370 N.ar    1  UNL1       -0.1961
     12 C         140.5834  139.7400  166.0112 C.ar    1  UNL1        0.1482
     13 N         141.7330  140.5970  166.4515 N.ar    1  UNL1       -0.3125
     14 C         141.4442  141.0818  167.8413 C.ar    1  UNL1        0.0898
     15 C         142.9567  140.9136  165.6438 C.3     1  UNL1        0.0869
     16 C         143.3988  142.2805  165.2122 C.3     1  UNL1        0.0226
     17 C         144.6684  142.1307  164.4275 C.3     1  UNL1        0.0020
     18 C         145.0109  140.6712  164.3741 C.3     1  UNL1        0.0020
     19 C         143.9529  139.9192  165.1258 C.3     1  UNL1        0.0226
     20 N         138.7860  137.4591  163.3062 N.pl3   1  UNL1       -0.2679
     21 H         138.6452  136.4849  163.3259 H       1  UNL1        0.1565
     22 C         138.7347  138.1980  162.0019 C.ar    1  UNL1        0.1344
     23 C         137.6995  139.2611  161.7824 C.ar    1  UNL1        0.0358
     24 C         137.6482  140.0001  160.4780 C.ar    1  UNL1        0.0190
     25 C         138.6320  139.6759  159.3931 C.ar    1  UNL1        0.0675
     26 C         139.6672  138.6127  159.6126 C.ar    1  UNL1        0.1147
     27 N         139.7185  137.8738  160.9170 N.ar    1  UNL1       -0.2277
     28 N         138.5807  140.4148  158.0888 N.pl3   1  UNL1       -0.3035
     29 C         138.9441  139.7124  156.8142 C.3     1  UNL1        0.1079
     30 C         138.8928  140.4513  155.5098 C.3     1  UNL1        0.0903
     31 N         138.4782  141.8925  155.4801 N.3     1  UNL1       -0.2946
     32 C         138.1148  142.5948  156.7547 C.3     1  UNL1        0.0903
     33 C         138.1660  141.8560  158.0590 C.3     1  UNL1        0.1079
     34 H         137.6639  141.9520  154.8686 H       1  UNL1        0.1233
@<TRIPOS>BOND
     1     1     2    1
     2     2     3   ar
     3     3     4   ar
     4     4     5   ar
     5     5     6   ar
     6     6     7   ar
     7     7     8   ar
     8     8     9   ar
     9     9    10   ar
    10    10    20    1
    11    20    22    1
    12    22    23   ar
    13    23    24   ar
    14    24    25   ar
    15    25    28    1
    16    28    29    1
    17    29    30    1
    18    30    31    1
    19    31    32    1
    20    32    33    1
    21    25    26   ar
    22    26    27   ar
    23    10    11   ar
    24    11    12   ar
    25    12    13   ar
    26    13    15    1
    27    15    16    1
    28    16    17    1
    29    17    18    1
    30    18    19    1
    31    13    14   ar
    32    14     2   ar
    33    14     6   ar
    34    12     7   ar
    35    19    15    1
    36    27    22   ar
    37    33    28    1
    38    20    21    1
    39    31    34    1
@<TRIPOS>MOLECULE
*****
 34 39 0 0 0
SMALL
GASTEIGER

@<TRIPOS>ATOM
      1 CL        143.7294  142.3509  168.8289 Cl      1  UNL1       -0.0598
      2 C         142.4761  141.6277  169.2239 C.ar    1  UNL1        0.1540
      3 N         142.1439  141.4400  170.6745 N.ar    1  UNL1       -0.2310
      4 C         140.8906  140.7167  171.0695 C.ar    1  UNL1        0.0999
      5 C         139.9694  140.1811  170.0139 C.ar    1  UNL1        0.0223
      6 C         140.3015  140.3687  168.5632 C.ar    1  UNL1        0.0241
      7 C         139.5908  139.9541  167.3090 C.ar    1  UNL1        0.0550
      8 C         138.3075  139.2116  167.0813 C.ar    1  UNL1        0.1048
      9 N         137.8383  138.9362  165.6835 N.ar    1  UNL1       -0.2119
     10 C         138.6524  139.4032  164.5133 C.ar    1  UNL1        0.2231
     11 N         139.9356  140.1457  164.7411 N.ar    1  UNL1       -0.1961
     12 C         140.4049  140.4211  166.1389 C.ar    1  UNL1        0.1482
     13 N         141.6187  141.1244  166.6699 N.ar    1  UNL1       -0.3125
     14 C         141.5549  141.0920  168.1682 C.ar    1  UNL1        0.0898
     15 C         142.7056  141.7502  165.8471 C.3     1  UNL1        0.0869
     16 C         143.8588  141.0289  165.2146 C.3     1  UNL1        0.0226
     17 C         144.6961  142.0401  164.4890 C.3     1  UNL1        0.0020
     18 C         144.0604  143.3862  164.6730 C.3     1  UNL1        0.0020
     19 C         142.8303  143.2070  165.5124 C.3     1  UNL1        0.0226
     20 N         138.1831  139.1278  163.1155 N.pl3   1  UNL1       -0.2679
     21 H         137.7052  138.2913  162.9125 H       1  UNL1        0.1565
     22 C         138.4420  140.1267  162.0270 C.ar    1  UNL1        0.1344
     23 C         139.2713  139.7421  160.8377 C.ar    1  UNL1        0.0358
     24 C         139.5302  140.7412  159.7491 C.ar    1  UNL1        0.0190
     25 C         138.9598  142.1249  159.8499 C.ar    1  UNL1        0.0675
     26 C         138.1306  142.5095  161.0392 C.ar    1  UNL1        0.1147
     27 N         137.8717  141.5104  162.1278 N.ar    1  UNL1       -0.2277
     28 N         139.2187  143.1240  158.7614 N.pl3   1  UNL1       -0.3035
     29 C         140.0382  144.3477  159.0460 C.3     1  UNL1        0.1079
     30 C         140.2970  145.3467  157.9575 C.3     1  UNL1        0.0903
     31 N         139.7365  145.1221  156.5845 N.3     1  UNL1       -0.2946
     32 C         138.9171  143.8984  156.2999 C.3     1  UNL1        0.0903
     33 C         138.6581  142.8993  157.3883 C.3     1  UNL1        0.1079
     34 H         140.5290  145.1016  155.9427 H       1  UNL1        0.1233
@<TRIPOS>BOND
     1     1     2    1
     2     2     3   ar
     3     3     4   ar
     4     4     5   ar
     5     5     6   ar
     6     6     7   ar
     7     7     8   ar
     8     8     9   ar
     9     9    10   ar
    10    10    20    1
    11    20    22    1
    12    22    23   ar
    13    23    24   ar
    14    24    25   ar
    15    25    28    1
    16    28    29    1
    17    29    30    1
    18    30    31    1
    19    31    32    1
    20    32    33    1
    21    25    26   ar
    22    26    27   ar
    23    10    11   ar
    24    11    12   ar
    25    12    13   ar
    26    13    15    1
    27    15    16    1
    28    16    17    1
    29    17    18    1
    30    18    19    1
    31    13    14   ar
    32    14     2   ar
    33    14     6   ar
    34    12     7   ar
    35    19    15    1
    36    27    22   ar
    37    33    28    1
    38    20    21    1
    39    31    34    1
@<TRIPOS>MOLECULE
*****
 34 39 0 0 0
SMALL
GASTEIGER

@<TRIPOS>ATOM
      1 CL        143.0605  142.2930  167.9403 Cl      1  UNL1       -0.0598
      2 C         141.8075  141.4685  167.9241 C.ar    1  UNL1        0.1540
      3 N         141.2450  140.9337  169.2076 N.ar    1  UNL1       -0.2310
      4 C         139.9921  140.1092  169.1915 C.ar    1  UNL1        0.0999
      5 C         139.3016  139.8195  167.8918 C.ar    1  UNL1        0.0223
      6 C         139.8641  140.3543  166.6082 C.ar    1  UNL1        0.0241
      7 C         139.4067  140.2342  165.1847 C.ar    1  UNL1        0.0550
      8 C         138.2320  139.5385  164.5633 C.ar    1  UNL1        0.1048
      9 N         138.0275  139.5931  163.0783 N.ar    1  UNL1       -0.2119
     10 C         138.9978  140.3433  162.2147 C.ar    1  UNL1        0.2231
     11 N         140.1724  141.0390  162.8361 N.ar    1  UNL1       -0.1961
     12 C         140.3769  140.9844  164.3211 C.ar    1  UNL1        0.1482
     13 N         141.4340  141.5682  165.2109 N.ar    1  UNL1       -0.3125
     14 C         141.1171  141.1788  166.6244 C.ar    1  UNL1        0.0898
     15 C         142.6028  142.3961  164.7654 C.3     1  UNL1        0.0869
     16 C         144.0157  141.9162  164.6120 C.3     1  UNL1        0.0226
     17 C         144.8500  143.0727  164.1469 C.3     1  UNL1        0.0020
     18 C         143.9529  144.2674  164.0129 C.3     1  UNL1        0.0020
     19 C         142.5640  143.8491  164.3951 C.3     1  UNL1        0.0226
     20 N         138.7933  140.3979  160.7297 N.pl3   1  UNL1       -0.2679
     21 H         138.0164  140.8740  160.3569 H       1  UNL1        0.1565
     22 C         139.7726  139.7271  159.8127 C.ar    1  UNL1        0.1344
     23 C         141.0377  139.1410  160.3657 C.ar    1  UNL1        0.0358
     24 C         142.0171  138.4702  159.4486 C.ar    1  UNL1        0.0190
     25 C         141.7312  138.3855  157.9786 C.ar    1  UNL1        0.0675
     26 C         140.4661  138.9716  157.4255 C.ar    1  UNL1        0.1147
     27 N         139.4867  139.6424  158.3426 N.ar    1  UNL1       -0.2277
     28 N         142.7105  137.7147  157.0615 N.pl3   1  UNL1       -0.3035
     29 C         142.8213  136.2189  157.0472 C.3     1  UNL1        0.1079
     30 C         143.8005  135.5481  156.1301 C.3     1  UNL1        0.0903
     31 N         144.6690  136.3731  155.2274 N.3     1  UNL1       -0.2946
     32 C         144.5583  137.8689  155.2417 C.3     1  UNL1        0.0903
     33 C         143.5790  138.5397  156.1587 C.3     1  UNL1        0.1079
     34 H         144.4713  136.0723  154.2730 H       1  UNL1        0.1233
@<TRIPOS>BOND
     1     1     2    1
     2     2     3   ar
     3     3     4   ar
     4     4     5   ar
     5     5     6   ar
     6     6     7   ar
     7     7     8   ar
     8     8     9   ar
     9     9    10   ar
    10    10    20    1
    11    20    22    1
    12    22    23   ar
    13    23    24   ar
    14    24    25   ar
    15    25    28    1
    16    28    29    1
    17    29    30    1
    18    30    31    1
    19    31    32    1
    20    32    33    1
    21    25    26   ar
    22    26    27   ar
    23    10    11   ar
    24    11    12   ar
    25    12    13   ar
    26    13    15    1
    27    15    16    1
    28    16    17    1
    29    17    18    1
    30    18    19    1
    31    13    14   ar
    32    14     2   ar
    33    14     6   ar
    34    12     7   ar
    35    19    15    1
    36    27    22   ar
    37    33    28    1
    38    20    21    1
    39    31    34    1
@<TRIPOS>MOLECULE
*****
 34 39 0 0 0
SMALL
GASTEIGER

@<TRIPOS>ATOM
      1 CL        143.2847  142.1964  167.9506 Cl      1  UNL1       -0.0598
      2 C         141.9862  141.4532  168.0588 C.ar    1  UNL1        0.1540
      3 N         141.2599  141.3993  169.3700 N.ar    1  UNL1       -0.2310
      4 C         139.9614  140.6562  169.4782 C.ar    1  UNL1        0.0999
      5 C         139.3892  139.9670  168.2750 C.ar    1  UNL1        0.0223
      6 C         140.1156  140.0209  166.9638 C.ar    1  UNL1        0.0241
      7 C         139.7990  139.4425  165.6165 C.ar    1  UNL1        0.0550
      8 C         138.6490  138.6144  165.1248 C.ar    1  UNL1        0.1048
      9 N         138.6018  138.1719  163.6923 N.ar    1  UNL1       -0.2119
     10 C         139.7046  138.5575  162.7515 C.ar    1  UNL1        0.2231
     11 N         140.8546  139.3856  163.2432 N.ar    1  UNL1       -0.1961
     12 C         140.9018  139.8280  164.6757 C.ar    1  UNL1        0.1482
     13 N         141.8999  140.6448  165.4415 N.ar    1  UNL1       -0.3125
     14 C         141.4141  140.7640  166.8556 C.ar    1  UNL1        0.0898
     15 C         143.1624  141.2382  164.8901 C.3     1  UNL1        0.0869
     16 C         143.3674  142.6736  164.5058 C.3     1  UNL1        0.0226
     17 C         144.7732  142.8230  164.0044 C.3     1  UNL1        0.0020
     18 C         145.4371  141.4799  164.0787 C.3     1  UNL1        0.0020
     19 C         144.4414  140.5005  164.6261 C.3     1  UNL1        0.0226
     20 N         139.6574  138.1150  161.3190 N.pl3   1  UNL1       -0.2679
     21 H         138.9472  137.5045  161.0155 H       1  UNL1        0.1565
     22 C         140.6921  138.6029  160.3489 C.ar    1  UNL1        0.1344
     23 C         140.3914  139.7692  159.4550 C.ar    1  UNL1        0.0358
     24 C         141.4263  140.2571  158.4849 C.ar    1  UNL1        0.0190
     25 C         142.7619  139.5786  158.4087 C.ar    1  UNL1        0.0675
     26 C         143.0627  138.4122  159.3027 C.ar    1  UNL1        0.1147
     27 N         142.0278  137.9243  160.2728 N.ar    1  UNL1       -0.2277
     28 N         143.7968  140.0664  157.4387 N.pl3   1  UNL1       -0.3035
     29 C         144.0073  139.3447  156.1406 C.3     1  UNL1        0.1079
     30 C         145.0421  139.8325  155.1706 C.3     1  UNL1        0.0903
     31 N         145.8665  141.0419  155.4985 N.3     1  UNL1       -0.2946
     32 C         145.6561  141.7636  156.7965 C.3     1  UNL1        0.0903
     33 C         144.6213  141.2758  157.7666 C.3     1  UNL1        0.1079
     34 H         145.7030  141.7203  154.7546 H       1  UNL1        0.1233
@<TRIPOS>BOND
     1     1     2    1
     2     2     3   ar
     3     3     4   ar
     4     4     5   ar
     5     5     6   ar
     6     6     7   ar
     7     7     8   ar
     8     8     9   ar
     9     9    10   ar
    10    10    20    1
    11    20    22    1
    12    22    23   ar
    13    23    24   ar
    14    24    25   ar
    15    25    28    1
    16    28    29    1
    17    29    30    1
    18    30    31    1
    19    31    32    1
    20    32    33    1
    21    25    26   ar
    22    26    27   ar
    23    10    11   ar
    24    11    12   ar
    25    12    13   ar
    26    13    15    1
    27    15    16    1
    28    16    17    1
    29    17    18    1
    30    18    19    1
    31    13    14   ar
    32    14     2   ar
    33    14     6   ar
    34    12     7   ar
    35    19    15    1
    36    27    22   ar
    37    33    28    1
    38    20    21    1
    39    31    34    1
@<TRIPOS>MOLECULE
*****
 34 39 0 0 0
SMALL
GASTEIGER

@<TRIPOS>ATOM
      1 CL        142.5826  139.2428  167.8637 Cl      1  UNL1       -0.0598
      2 C         141.9740  140.5880  168.1278 C.ar    1  UNL1        0.1540
      3 N         142.1803  141.2573  169.4542 N.ar    1  UNL1       -0.2310
      4 C         141.5717  142.6025  169.7183 C.ar    1  UNL1        0.0999
      5 C         140.7567  143.2786  168.6560 C.ar    1  UNL1        0.0223
      6 C         140.5503  142.6094  167.3295 C.ar    1  UNL1        0.0241
      7 C         139.8014  143.0289  166.0994 C.ar    1  UNL1        0.0550
      8 C         139.0056  144.2594  165.7797 C.ar    1  UNL1        0.1048
      9 N         138.3555  144.4040  164.4356 N.ar    1  UNL1       -0.2119
     10 C         138.5012  143.3180  163.4112 C.ar    1  UNL1        0.2231
     11 N         139.2971  142.0874  163.7310 N.ar    1  UNL1       -0.1961
     12 C         139.9472  141.9429  165.0750 C.ar    1  UNL1        0.1482
     13 N         140.7862  140.8522  165.6721 N.ar    1  UNL1       -0.3125
     14 C         141.1590  141.2641  167.0654 C.ar    1  UNL1        0.0898
     15 C         141.1829  139.5740  164.9947 C.3     1  UNL1        0.0869
     16 C         140.4137  138.2865  165.0215 C.3     1  UNL1        0.0226
     17 C         141.1737  137.2756  164.2150 C.3     1  UNL1        0.0020
     18 C         142.4127  137.9383  163.6898 C.3     1  UNL1        0.0020
     19 C         142.4183  139.3587  164.1717 C.3     1  UNL1        0.0226
     20 N         137.8512  143.4626  162.0672 N.pl3   1  UNL1       -0.2679
     21 H         137.2081  144.1907  161.9071 H       1  UNL1        0.1565
     22 C         138.1809  142.4978  160.9670 C.ar    1  UNL1        0.1344
     23 C         139.1714  142.8789  159.9071 C.ar    1  UNL1        0.0358
     24 C         139.5012  141.9141  158.8068 C.ar    1  UNL1        0.0190
     25 C         138.8402  140.5681  158.7666 C.ar    1  UNL1        0.0675
     26 C         137.8496  140.1870  159.8265 C.ar    1  UNL1        0.1147
     27 N         137.5199  141.1519  160.9268 N.ar    1  UNL1       -0.2277
     28 N         139.1699  139.6033  157.6664 N.pl3   1  UNL1       -0.3035
     29 C         140.0328  138.4095  157.9494 C.3     1  UNL1        0.1079
     30 C         140.3625  137.4446  156.8493 C.3     1  UNL1        0.0903
     31 N         139.8292  137.6736  155.4661 N.3     1  UNL1       -0.2946
     32 C         138.9663  138.8674  155.1831 C.3     1  UNL1        0.0903
     33 C         138.6366  139.8323  156.2832 C.3     1  UNL1        0.1079
     34 H         139.2806  136.8491  155.2219 H       1  UNL1        0.1233
@<TRIPOS>BOND
     1     1     2    1
     2     2     3   ar
     3     3     4   ar
     4     4     5   ar
     5     5     6   ar
     6     6     7   ar
     7     7     8   ar
     8     8     9   ar
     9     9    10   ar
    10    10    20    1
    11    20    22    1
    12    22    23   ar
    13    23    24   ar
    14    24    25   ar
    15    25    28    1
    16    28    29    1
    17    29    30    1
    18    30    31    1
    19    31    32    1
    20    32    33    1
    21    25    26   ar
    22    26    27   ar
    23    10    11   ar
    24    11    12   ar
    25    12    13   ar
    26    13    15    1
    27    15    16    1
    28    16    17    1
    29    17    18    1
    30    18    19    1
    31    13    14   ar
    32    14     2   ar
    33    14     6   ar
    34    12     7   ar
    35    19    15    1
    36    27    22   ar
    37    33    28    1
    38    20    21    1
    39    31    34    1
@<TRIPOS>MOLECULE
*****
 34 39 0 0 0
SMALL
GASTEIGER

@<TRIPOS>ATOM
      1 CL        144.8880  142.6083  159.0851 Cl      1  UNL1       -0.0598
      2 C         143.5004  142.7728  158.5396 C.ar    1  UNL1        0.1540
      3 N         143.2998  143.1647  157.1057 N.ar    1  UNL1       -0.2310
      4 C         141.9122  143.3293  156.5603 C.ar    1  UNL1        0.0999
      5 C         140.7253  143.1020  157.4487 C.ar    1  UNL1        0.0223
      6 C         140.9259  142.7101  158.8826 C.ar    1  UNL1        0.0241
      7 C         139.9555  142.4210  159.9893 C.ar    1  UNL1        0.0550
      8 C         138.4563  142.4259  160.0364 C.ar    1  UNL1        0.1048
      9 N         137.7448  142.0876  161.3129 N.ar    1  UNL1       -0.2119
     10 C         138.5326  141.7443  162.5423 C.ar    1  UNL1        0.2231
     11 N         140.0319  141.7393  162.4952 N.ar    1  UNL1       -0.1961
     12 C         140.7433  142.0777  161.2187 C.ar    1  UNL1        0.1482
     13 N         142.2006  142.1547  160.8718 N.ar    1  UNL1       -0.3125
     14 C         142.3135  142.5455  159.4281 C.ar    1  UNL1        0.0898
     15 C         143.3443  141.8877  161.8049 C.3     1  UNL1        0.0869
     16 C         144.0403  142.9046  162.6602 C.3     1  UNL1        0.0226
     17 C         145.1189  142.2024  163.4304 C.3     1  UNL1        0.0020
     18 C         145.0897  140.7513  163.0512 C.3     1  UNL1        0.0020
     19 C         143.9928  140.5570  162.0466 C.3     1  UNL1        0.0226
     20 N         137.8212  141.4059  163.8188 N.pl3   1  UNL1       -0.2679
     21 H         136.8445  141.2827  163.8202 H       1  UNL1        0.1565
     22 C         138.5980  141.2554  165.0930 C.ar    1  UNL1        0.1344
     23 C         138.6080  139.9403  165.8144 C.ar    1  UNL1        0.0358
     24 C         139.3849  139.7897  167.0888 C.ar    1  UNL1        0.0190
     25 C         140.1517  140.9543  167.6417 C.ar    1  UNL1        0.0675
     26 C         140.1418  142.2694  166.9203 C.ar    1  UNL1        0.1147
     27 N         139.3649  142.4199  165.6459 N.ar    1  UNL1       -0.2277
     28 N         140.9286  140.8038  168.9160 N.pl3   1  UNL1       -0.3035
     29 C         140.7180  141.7727  170.0416 C.3     1  UNL1        0.1079
     30 C         141.4949  141.6222  171.3159 C.3     1  UNL1        0.0903
     31 N         142.4822  140.5029  171.4646 N.3     1  UNL1       -0.2946
     32 C         142.6927  139.5340  170.3390 C.3     1  UNL1        0.0903
     33 C         141.9159  139.6844  169.0647 C.3     1  UNL1        0.1079
     34 H         142.1871  139.9554  172.2730 H       1  UNL1        0.1233
@<TRIPOS>BOND
     1     1     2    1
     2     2     3   ar
     3     3     4   ar
     4     4     5   ar
     5     5     6   ar
     6     6     7   ar
     7     7     8   ar
     8     8     9   ar
     9     9    10   ar
    10    10    20    1
    11    20    22    1
    12    22    23   ar
    13    23    24   ar
    14    24    25   ar
    15    25    28    1
    16    28    29    1
    17    29    30    1
    18    30    31    1
    19    31    32    1
    20    32    33    1
    21    25    26   ar
    22    26    27   ar
    23    10    11   ar
    24    11    12   ar
    25    12    13   ar
    26    13    15    1
    27    15    16    1
    28    16    17    1
    29    17    18    1
    30    18    19    1
    31    13    14   ar
    32    14     2   ar
    33    14     6   ar
    34    12     7   ar
    35    19    15    1
    36    27    22   ar
    37    33    28    1
    38    20    21    1
    39    31    34    1
