@<TRIPOS>MOLECULE
*****
 30 32 0 0 0
SMALL
GASTEIGER

@<TRIPOS>ATOM
      1 C         140.1466  142.8372  164.1827 C.ar    1  UNL1        0.0730
      2 C         141.6160  142.8953  164.4781 C.ar    1  UNL1        0.0322
      3 C         142.5374  143.6387  163.5569 C.ar    1  UNL1        0.0654
      4 C         141.9893  144.3238  162.3403 C.ar    1  UNL1        0.1133
      5 N         140.5198  144.2656  162.0448 N.ar    1  UNL1       -0.2367
      6 C         139.5985  143.5223  162.9660 C.ar    1  UNL1        0.1476
      7 C         138.1290  143.4642  162.6706 C.2     1  UNL1        0.2617
      8 N         137.3374  144.7325  162.5503 N.am    1  UNL1       -0.3240
      9 O         137.4511  142.1375  162.4955 O.2     1  UNL1       -0.2687
     10 H         137.7823  145.6032  162.6652 H       1  UNL1        0.1453
     11 H         136.3729  144.6944  162.3564 H       1  UNL1        0.1453
     12 N         139.2252  142.0939  165.1039 N.pl3   1  UNL1       -0.2966
     13 H         138.6349  142.5904  165.7156 H       1  UNL1        0.1537
     14 C         137.4048  137.6064  166.9875 C.3     1  UNL1        0.0312
     15 C         138.2930  138.3503  166.0349 C.ar    1  UNL1       -0.0179
     16 C         139.1593  137.5945  165.0714 C.ar    1  UNL1        0.0106
     17 C         140.0475  138.3385  164.1187 C.ar    1  UNL1        0.0605
     18 C         140.9138  137.5826  163.1552 C.3     1  UNL1        0.0521
     19 N         140.0695  139.8382  164.1295 N.ar    1  UNL1       -0.2349
     20 C         139.2032  140.5941  165.0930 C.ar    1  UNL1        0.1315
     21 C         138.3150  139.8501  166.0457 C.ar    1  UNL1        0.0301
     22 N         144.0069  143.6968  163.8523 N.pl3   1  UNL1       -0.3304
     23 H         144.5571  144.4194  163.4724 H       1  UNL1        0.1469
     24 C         144.6380  142.6540  164.7265 C.3     1  UNL1        0.1014
     25 C         145.0555  141.3374  164.1414 C.3     1  UNL1        0.0572
     26 N         146.1433  141.7966  163.2165 N.3     1  UNL1       -0.3219
     27 C         145.0952  139.8614  163.8776 C.3     1  UNL1        0.0173
     28 C         144.1126  140.4208  164.8632 C.3     1  UNL1        0.0173
     29 H         146.2411  142.8097  163.2831 H       1  UNL1        0.1188
     30 H         145.9056  141.5403  162.2582 H       1  UNL1        0.1188
@<TRIPOS>BOND
     1    14    15    1
     2    15    16   ar
     3    16    17   ar
     4    17    18    1
     5    17    19   ar
     6    19    20   ar
     7    20    12    1
     8    12     1    1
     9     1     2   ar
    10     2     3   ar
    11     3    22    1
    12    22    24    1
    13    24    25    1
    14    25    26    1
    15    25    27    1
    16    27    28    1
    17     3     4   ar
    18     4     5   ar
    19     5     6   ar
    20     6     7    1
    21     7     8   am
    22     7     9    2
    23    20    21   ar
    24    21    15   ar
    25     6     1   ar
    26    28    25    1
    27    12    13    1
    28    22    23    1
    29    26    29    1
    30    26    30    1
    31     8    10    1
    32     8    11    1
@<TRIPOS>MOLECULE
*****
 30 32 0 0 0
SMALL
GASTEIGER

@<TRIPOS>ATOM
      1 C         142.5975  142.2183  164.9814 C.ar    1  UNL1        0.0730
      2 C         141.4339  143.1621  165.0540 C.ar    1  UNL1        0.0322
      3 C         141.2783  144.2415  164.0241 C.ar    1  UNL1        0.0654
      4 C         142.2864  144.3772  162.9217 C.ar    1  UNL1        0.1133
      5 N         143.4500  143.4334  162.8491 N.ar    1  UNL1       -0.2367
      6 C         143.6056  142.3540  163.8789 C.ar    1  UNL1        0.1476
      7 C         144.7692  141.4102  163.8064 C.2     1  UNL1        0.2617
      8 N         146.1284  141.9228  163.4326 N.am    1  UNL1       -0.3240
      9 O         144.5735  139.9538  164.1076 O.2     1  UNL1       -0.2687
     10 H         146.2568  142.8786  163.2349 H       1  UNL1        0.1453
     11 H         146.8921  141.3033  163.3850 H       1  UNL1        0.1453
     12 N         142.7531  141.1389  166.0113 N.pl3   1  UNL1       -0.2966
     13 H         143.6068  140.6553  166.0925 H       1  UNL1        0.1537
     14 C         138.1189  138.9114  166.7615 C.3     1  UNL1        0.0312
     15 C         139.2908  139.6824  167.2926 C.ar    1  UNL1       -0.0179
     16 C         139.3176  140.1108  168.7298 C.ar    1  UNL1        0.0106
     17 C         140.4895  140.8818  169.2609 C.ar    1  UNL1        0.0605
     18 C         140.5162  141.3102  170.6983 C.3     1  UNL1        0.0521
     19 N         141.6347  141.2245  168.3548 N.ar    1  UNL1       -0.2349
     20 C         141.6079  140.7962  166.9175 C.ar    1  UNL1        0.1315
     21 C         140.4359  140.0251  166.3864 C.ar    1  UNL1        0.0301
     22 N         140.1147  145.1853  164.0967 N.pl3   1  UNL1       -0.3304
     23 H         140.2344  146.1335  163.8604 H       1  UNL1        0.1469
     24 C         138.7686  144.6843  164.5293 C.3     1  UNL1        0.1014
     25 C         138.0323  143.6873  163.6843 C.3     1  UNL1        0.0572
     26 N         137.7924  144.5138  162.4557 N.3     1  UNL1       -0.3219
     27 C         137.3794  142.4034  163.2660 C.3     1  UNL1        0.0173
     28 C         138.0165  142.5146  164.6194 C.3     1  UNL1        0.0173
     29 H         138.1902  145.4436  162.5884 H       1  UNL1        0.1188
     30 H         136.7891  144.5937  162.2902 H       1  UNL1        0.1188
@<TRIPOS>BOND
     1    14    15    1
     2    15    16   ar
     3    16    17   ar
     4    17    18    1
     5    17    19   ar
     6    19    20   ar
     7    20    12    1
     8    12     1    1
     9     1     2   ar
    10     2     3   ar
    11     3    22    1
    12    22    24    1
    13    24    25    1
    14    25    26    1
    15    25    27    1
    16    27    28    1
    17     3     4   ar
    18     4     5   ar
    19     5     6   ar
    20     6     7    1
    21     7     8   am
    22     7     9    2
    23    20    21   ar
    24    21    15   ar
    25     6     1   ar
    26    28    25    1
    27    12    13    1
    28    22    23    1
    29    26    29    1
    30    26    30    1
    31     8    10    1
    32     8    11    1
@<TRIPOS>MOLECULE
*****
 30 32 0 0 0
SMALL
GASTEIGER

@<TRIPOS>ATOM
      1 C         140.4273  140.5563  166.8285 C.ar    1  UNL1        0.0730
      2 C         139.9819  140.3249  165.4149 C.ar    1  UNL1        0.0322
      3 C         138.7485  139.5165  165.1401 C.ar    1  UNL1        0.0654
      4 C         137.9607  138.9396  166.2787 C.ar    1  UNL1        0.1133
      5 N         138.4062  139.1710  167.6922 N.ar    1  UNL1       -0.2367
      6 C         139.6395  139.9793  167.9671 C.ar    1  UNL1        0.1476
      7 C         140.0850  140.2107  169.3806 C.2     1  UNL1        0.2617
      8 N         139.1010  140.6836  170.4092 N.am    1  UNL1       -0.3240
      9 O         141.5145  139.9691  169.7655 O.2     1  UNL1       -0.2687
     10 H         138.1628  140.8422  170.1566 H       1  UNL1        0.1453
     11 H         139.3934  140.8355  171.3369 H       1  UNL1        0.1453
     12 N         141.6606  141.3646  167.1033 N.pl3   1  UNL1       -0.2966
     13 H         142.0036  141.4421  168.0229 H       1  UNL1        0.1537
     14 C         141.8937  145.2047  163.6106 C.3     1  UNL1        0.0312
     15 C         142.4879  143.9750  164.2308 C.ar    1  UNL1       -0.0179
     16 C         143.7929  143.4356  163.7248 C.ar    1  UNL1        0.0106
     17 C         144.3871  142.2058  164.3450 C.ar    1  UNL1        0.0605
     18 C         145.6922  141.6664  163.8390 C.3     1  UNL1        0.0521
     19 N         143.6764  141.5155  165.4712 N.ar    1  UNL1       -0.2349
     20 C         142.3714  142.0549  165.9771 C.ar    1  UNL1        0.1315
     21 C         141.7772  143.2847  165.3569 C.ar    1  UNL1        0.0301
     22 N         138.3030  139.2852  163.7266 N.pl3   1  UNL1       -0.3304
     23 H         137.7594  138.4949  163.5049 H       1  UNL1        0.1469
     24 C         138.6858  140.2580  162.6508 C.3     1  UNL1        0.1014
     25 C         138.0884  141.6338  162.6366 C.3     1  UNL1        0.0572
     26 N         136.6619  141.3018  162.9606 N.3     1  UNL1       -0.3219
     27 C         137.9864  143.1249  162.5099 C.3     1  UNL1        0.0173
     28 C         139.3073  142.4437  162.3077 C.3     1  UNL1        0.0173
     29 H         136.5663  140.2933  163.0799 H       1  UNL1        0.1188
     30 H         136.0590  141.6128  162.1989 H       1  UNL1        0.1188
@<TRIPOS>BOND
     1    14    15    1
     2    15    16   ar
     3    16    17   ar
     4    17    18    1
     5    17    19   ar
     6    19    20   ar
     7    20    12    1
     8    12     1    1
     9     1     2   ar
    10     2     3   ar
    11     3    22    1
    12    22    24    1
    13    24    25    1
    14    25    26    1
    15    25    27    1
    16    27    28    1
    17     3     4   ar
    18     4     5   ar
    19     5     6   ar
    20     6     7    1
    21     7     8   am
    22     7     9    2
    23    20    21   ar
    24    21    15   ar
    25     6     1   ar
    26    28    25    1
    27    12    13    1
    28    22    23    1
    29    26    29    1
    30    26    30    1
    31     8    10    1
    32     8    11    1
@<TRIPOS>MOLECULE
*****
 30 32 0 0 0
SMALL
GASTEIGER

@<TRIPOS>ATOM
      1 C         142.6369  142.2606  164.8624 C.ar    1  UNL1        0.0730
      2 C         141.4863  143.2189  164.9507 C.ar    1  UNL1        0.0322
      3 C         141.2999  144.2666  163.8935 C.ar    1  UNL1        0.0654
      4 C         142.2641  144.3559  162.7480 C.ar    1  UNL1        0.1133
      5 N         143.4147  143.3976  162.6596 N.ar    1  UNL1       -0.2367
      6 C         143.6011  142.3500  163.7168 C.ar    1  UNL1        0.1476
      7 C         144.7517  141.3917  163.6285 C.2     1  UNL1        0.2617
      8 N         146.1450  141.9093  163.4259 N.am    1  UNL1       -0.3240
      9 O         144.5091  139.9159  163.7427 O.2     1  UNL1       -0.2687
     10 H         146.3042  142.8779  163.3510 H       1  UNL1        0.1453
     11 H         146.9001  141.2803  163.3680 H       1  UNL1        0.1453
     12 N         142.8233  141.2130  165.9196 N.pl3   1  UNL1       -0.2966
     13 H         143.7084  140.8043  166.0570 H       1  UNL1        0.1537
     14 C         140.5272  140.8850  170.5694 C.3     1  UNL1        0.0312
     15 C         140.5131  140.6239  169.0923 C.ar    1  UNL1       -0.0179
     16 C         139.3370  139.9378  168.4631 C.ar    1  UNL1        0.0106
     17 C         139.3229  139.6768  166.9861 C.ar    1  UNL1        0.0605
     18 C         138.1467  138.9907  166.3569 C.3     1  UNL1        0.0521
     19 N         140.4850  140.1018  166.1382 N.ar    1  UNL1       -0.2349
     20 C         141.6611  140.7879  166.7674 C.ar    1  UNL1        0.1315
     21 C         141.6752  141.0489  168.2445 C.ar    1  UNL1        0.0301
     22 N         140.1493  145.2248  163.9818 N.pl3   1  UNL1       -0.3304
     23 H         140.2727  146.1672  163.7251 H       1  UNL1        0.1469
     24 C         138.8106  144.7472  164.4612 C.3     1  UNL1        0.1014
     25 C         138.0386  143.7457  163.6544 C.3     1  UNL1        0.0572
     26 N         137.7859  144.5500  162.4137 N.3     1  UNL1       -0.3219
     27 C         137.3543  142.4650  163.2784 C.3     1  UNL1        0.0173
     28 C         138.0231  142.5936  164.6148 C.3     1  UNL1        0.0173
     29 H         138.2026  145.4751  162.5175 H       1  UNL1        0.1188
     30 H         136.7807  144.6442  162.2684 H       1  UNL1        0.1188
@<TRIPOS>BOND
     1    14    15    1
     2    15    16   ar
     3    16    17   ar
     4    17    18    1
     5    17    19   ar
     6    19    20   ar
     7    20    12    1
     8    12     1    1
     9     1     2   ar
    10     2     3   ar
    11     3    22    1
    12    22    24    1
    13    24    25    1
    14    25    26    1
    15    25    27    1
    16    27    28    1
    17     3     4   ar
    18     4     5   ar
    19     5     6   ar
    20     6     7    1
    21     7     8   am
    22     7     9    2
    23    20    21   ar
    24    21    15   ar
    25     6     1   ar
    26    28    25    1
    27    12    13    1
    28    22    23    1
    29    26    29    1
    30    26    30    1
    31     8    10    1
    32     8    11    1
@<TRIPOS>MOLECULE
*****
 30 32 0 0 0
SMALL
GASTEIGER

@<TRIPOS>ATOM
      1 C         141.0868  143.7203  164.2759 C.ar    1  UNL1        0.0730
      2 C         142.5011  143.5156  163.8200 C.ar    1  UNL1        0.0322
      3 C         142.9194  143.9611  162.4500 C.ar    1  UNL1        0.0654
      4 C         141.9234  144.6112  161.5361 C.ar    1  UNL1        0.1133
      5 N         140.5091  144.8159  161.9920 N.ar    1  UNL1       -0.2367
      6 C         140.0908  144.3704  163.3619 C.ar    1  UNL1        0.1476
      7 C         138.6765  144.5751  163.8178 C.2     1  UNL1        0.2617
      8 N         137.5445  144.4111  162.8475 N.am    1  UNL1       -0.3240
      9 O         138.3942  144.9438  165.2442 O.2     1  UNL1       -0.2687
     10 H         137.7297  144.1691  161.9113 H       1  UNL1        0.1453
     11 H         136.6162  144.5454  163.1467 H       1  UNL1        0.1453
     12 N         140.6685  143.2748  165.6457 N.pl3   1  UNL1       -0.2966
     13 H         139.9567  143.7579  166.1245 H       1  UNL1        0.1537
     14 C         143.1391  141.1483  169.6923 C.3     1  UNL1        0.0312
     15 C         142.5699  141.0300  168.3095 C.ar    1  UNL1       -0.0179
     16 C         142.6670  139.7302  167.5672 C.ar    1  UNL1        0.0106
     17 C         142.0978  139.6119  166.1844 C.ar    1  UNL1        0.0605
     18 C         142.1949  138.3120  165.4421 C.3     1  UNL1        0.0521
     19 N         141.4317  140.7934  165.5439 N.ar    1  UNL1       -0.2349
     20 C         141.3347  142.0932  166.2862 C.ar    1  UNL1        0.1315
     21 C         141.9038  142.2115  167.6690 C.ar    1  UNL1        0.0301
     22 N         144.3336  143.7564  161.9941 N.pl3   1  UNL1       -0.3304
     23 H         144.9608  144.5152  161.9793 H       1  UNL1        0.1469
     24 C         144.7924  142.3956  161.5606 C.3     1  UNL1        0.1014
     25 C         145.0157  141.3191  162.5810 C.3     1  UNL1        0.0572
     26 N         146.2259  141.8673  163.2774 N.3     1  UNL1       -0.3219
     27 C         144.8188  140.0523  163.3596 C.3     1  UNL1        0.0173
     28 C         143.8832  140.3970  162.2390 C.3     1  UNL1        0.0173
     29 H         146.4916  142.7544  162.8497 H       1  UNL1        0.1188
     30 H         146.9965  141.2045  163.1924 H       1  UNL1        0.1188
@<TRIPOS>BOND
     1    14    15    1
     2    15    16   ar
     3    16    17   ar
     4    17    18    1
     5    17    19   ar
     6    19    20   ar
     7    20    12    1
     8    12     1    1
     9     1     2   ar
    10     2     3   ar
    11     3    22    1
    12    22    24    1
    13    24    25    1
    14    25    26    1
    15    25    27    1
    16    27    28    1
    17     3     4   ar
    18     4     5   ar
    19     5     6   ar
    20     6     7    1
    21     7     8   am
    22     7     9    2
    23    20    21   ar
    24    21    15   ar
    25     6     1   ar
    26    28    25    1
    27    12    13    1
    28    22    23    1
    29    26    29    1
    30    26    30    1
    31     8    10    1
    32     8    11    1
@<TRIPOS>MOLECULE
*****
 30 32 0 0 0
SMALL
GASTEIGER

@<TRIPOS>ATOM
      1 C         140.2230  140.1159  166.8065 C.ar    1  UNL1        0.0730
      2 C         139.9940  139.3516  165.5364 C.ar    1  UNL1        0.0322
      3 C         138.8605  138.3734  165.4438 C.ar    1  UNL1        0.0654
      4 C         137.9562  138.1596  166.6213 C.ar    1  UNL1        0.1133
      5 N         138.1853  138.9239  167.8914 N.ar    1  UNL1       -0.2367
      6 C         139.3187  139.9021  167.9841 C.ar    1  UNL1        0.1476
      7 C         139.5478  140.6665  169.2542 C.2     1  UNL1        0.2617
      8 N         139.3265  140.0012  170.5802 N.am    1  UNL1       -0.3240
      9 O         139.9982  142.0962  169.1983 O.2     1  UNL1       -0.2687
     10 H         139.0309  139.0628  170.6169 H       1  UNL1        0.1453
     11 H         139.4768  140.5029  171.4139 H       1  UNL1        0.1453
     12 N         141.3564  141.0941  166.8992 N.pl3   1  UNL1       -0.2966
     13 H         142.0595  140.9701  167.5771 H       1  UNL1        0.1537
     14 C         144.1071  144.2586  163.8300 C.3     1  UNL1        0.0312
     15 C         142.7940  143.8435  164.4244 C.ar    1  UNL1       -0.0179
     16 C         141.5430  144.5955  164.0787 C.ar    1  UNL1        0.0106
     17 C         140.2299  144.1804  164.6730 C.ar    1  UNL1        0.0605
     18 C         138.9789  144.9324  164.3272 C.3     1  UNL1        0.0521
     19 N         140.1676  143.0133  165.6132 N.ar    1  UNL1       -0.2349
     20 C         141.4186  142.2613  165.9590 C.ar    1  UNL1        0.1315
     21 C         142.7317  142.6764  165.3646 C.ar    1  UNL1        0.0301
     22 N         138.6314  137.6090  164.1736 N.pl3   1  UNL1       -0.3304
     23 H         137.7908  137.1137  164.0420 H       1  UNL1        0.1469
     24 C         139.6831  137.5993  163.1041 C.3     1  UNL1        0.1014
     25 C         139.3318  138.0044  161.7032 C.3     1  UNL1        0.0572
     26 N         137.8433  137.8235  161.7452 N.3     1  UNL1       -0.3219
     27 C         139.4974  138.4722  160.2877 C.3     1  UNL1        0.0173
     28 C         140.6982  138.3259  161.1745 C.3     1  UNL1        0.0173
     29 H         137.5664  137.4983  162.6715 H       1  UNL1        0.1188
     30 H         137.5646  137.1353  161.0459 H       1  UNL1        0.1188
@<TRIPOS>BOND
     1    14    15    1
     2    15    16   ar
     3    16    17   ar
     4    17    18    1
     5    17    19   ar
     6    19    20   ar
     7    20    12    1
     8    12     1    1
     9     1     2   ar
    10     2     3   ar
    11     3    22    1
    12    22    24    1
    13    24    25    1
    14    25    26    1
    15    25    27    1
    16    27    28    1
    17     3     4   ar
    18     4     5   ar
    19     5     6   ar
    20     6     7    1
    21     7     8   am
    22     7     9    2
    23    20    21   ar
    24    21    15   ar
    25     6     1   ar
    26    28    25    1
    27    12    13    1
    28    22    23    1
    29    26    29    1
    30    26    30    1
    31     8    10    1
    32     8    11    1
@<TRIPOS>MOLECULE
*****
 30 32 0 0 0
SMALL
GASTEIGER

@<TRIPOS>ATOM
      1 C         140.2122  142.4290  163.1439 C.ar    1  UNL1        0.0730
      2 C         140.9472  141.1323  162.9758 C.ar    1  UNL1        0.0322
      3 C         141.9381  140.9709  161.8611 C.ar    1  UNL1        0.0654
      4 C         142.1937  142.1062  160.9148 C.ar    1  UNL1        0.1133
      5 N         141.4587  143.4029  161.0829 N.ar    1  UNL1       -0.2367
      6 C         140.4679  143.5643  162.1975 C.ar    1  UNL1        0.1476
      7 C         139.7328  144.8610  162.3657 C.2     1  UNL1        0.2617
      8 N         140.4959  146.1490  162.4596 N.am    1  UNL1       -0.3240
      9 O         138.2346  144.8696  162.4400 O.2     1  UNL1       -0.2687
     10 H         141.4791  146.1433  162.4108 H       1  UNL1        0.1453
     11 H         140.0134  147.0000  162.5700 H       1  UNL1        0.1453
     12 N         139.2214  142.5904  164.2585 N.pl3   1  UNL1       -0.2966
     13 H         138.5314  143.2906  164.2062 H       1  UNL1        0.1537
     14 C         137.8384  138.1836  166.6393 C.3     1  UNL1        0.0312
     15 C         138.5905  139.4815  166.6432 C.ar    1  UNL1       -0.0179
     16 C         139.4031  139.8738  167.8414 C.ar    1  UNL1        0.0106
     17 C         140.1551  141.1716  167.8453 C.ar    1  UNL1        0.0605
     18 C         140.9678  141.5639  169.0436 C.3     1  UNL1        0.0521
     19 N         140.0946  142.0771  166.6511 N.ar    1  UNL1       -0.2349
     20 C         139.2820  141.6848  165.4529 C.ar    1  UNL1        0.1315
     21 C         138.5299  140.3870  165.4490 C.ar    1  UNL1        0.0301
     22 N         142.6731  139.6743  161.6929 N.pl3   1  UNL1       -0.3304
     23 H         142.9376  139.3713  160.7943 H       1  UNL1        0.1469
     24 C         143.0052  138.8391  162.8939 C.3     1  UNL1        0.1014
     25 C         141.9952  137.8728  163.4380 C.3     1  UNL1        0.0572
     26 N         141.5489  137.2179  162.1644 N.3     1  UNL1       -0.3219
     27 C         141.1401  137.1339  164.4243 C.3     1  UNL1        0.0173
     28 C         142.0906  138.1920  164.9005 C.3     1  UNL1        0.0173
     29 H         142.0548  137.6245  161.3776 H       1  UNL1        0.1188
     30 H         140.5477  137.3667  162.0383 H       1  UNL1        0.1188
@<TRIPOS>BOND
     1    14    15    1
     2    15    16   ar
     3    16    17   ar
     4    17    18    1
     5    17    19   ar
     6    19    20   ar
     7    20    12    1
     8    12     1    1
     9     1     2   ar
    10     2     3   ar
    11     3    22    1
    12    22    24    1
    13    24    25    1
    14    25    26    1
    15    25    27    1
    16    27    28    1
    17     3     4   ar
    18     4     5   ar
    19     5     6   ar
    20     6     7    1
    21     7     8   am
    22     7     9    2
    23    20    21   ar
    24    21    15   ar
    25     6     1   ar
    26    28    25    1
    27    12    13    1
    28    22    23    1
    29    26    29    1
    30    26    30    1
    31     8    10    1
    32     8    11    1
@<TRIPOS>MOLECULE
*****
 30 32 0 0 0
SMALL
GASTEIGER

@<TRIPOS>ATOM
      1 C         139.9469  142.2204  163.2632 C.ar    1  UNL1        0.0730
      2 C         139.9903  140.7667  162.8959 C.ar    1  UNL1        0.0322
      3 C         138.9231  140.1827  162.0184 C.ar    1  UNL1        0.0654
      4 C         137.8125  141.0523  161.5082 C.ar    1  UNL1        0.1133
      5 N         137.7690  142.5060  161.8755 N.ar    1  UNL1       -0.2367
      6 C         138.8362  143.0901  162.7530 C.ar    1  UNL1        0.1476
      7 C         138.7928  144.5437  163.1203 C.2     1  UNL1        0.2617
      8 N         138.7515  145.5882  162.0445 N.am    1  UNL1       -0.3240
      9 O         138.7906  144.9529  164.5634 O.2     1  UNL1       -0.2687
     10 H         138.7529  145.3196  161.0973 H       1  UNL1        0.1453
     11 H         138.7230  146.5423  162.2856 H       1  UNL1        0.1453
     12 N         141.0141  142.8045  164.1406 N.pl3   1  UNL1       -0.2966
     13 H         141.5834  143.5338  163.8042 H       1  UNL1        0.1537
     14 C         142.8779  139.1674  167.3496 C.3     1  UNL1        0.0312
     15 C         142.1457  140.4589  167.1352 C.ar    1  UNL1       -0.0179
     16 C         141.6133  141.2233  168.3108 C.ar    1  UNL1        0.0106
     17 C         140.8810  142.5147  168.0964 C.ar    1  UNL1        0.0605
     18 C         140.3486  143.2791  169.2721 C.3     1  UNL1        0.0521
     19 N         140.6813  143.0418  166.7064 N.ar    1  UNL1       -0.2349
     20 C         141.2138  142.2774  165.5307 C.ar    1  UNL1        0.1315
     21 C         141.9460  140.9860  165.7451 C.ar    1  UNL1        0.0301
     22 N         138.9665  138.7290  161.6511 N.pl3   1  UNL1       -0.3304
     23 H         138.9614  138.4602  160.7040 H       1  UNL1        0.1469
     24 C         139.0178  137.6848  162.7268 C.3     1  UNL1        0.1014
     25 C         140.3016  137.4227  163.4570 C.3     1  UNL1        0.0572
     26 N         141.2143  137.1651  162.2949 N.3     1  UNL1       -0.3219
     27 C         141.2684  137.2501  164.5907 C.3     1  UNL1        0.0173
     28 C         139.8347  137.5893  164.8727 C.3     1  UNL1        0.0173
     29 H         140.6886  137.2482  161.4247 H       1  UNL1        0.1188
     30 H         141.6023  136.2247  162.3692 H       1  UNL1        0.1188
@<TRIPOS>BOND
     1    14    15    1
     2    15    16   ar
     3    16    17   ar
     4    17    18    1
     5    17    19   ar
     6    19    20   ar
     7    20    12    1
     8    12     1    1
     9     1     2   ar
    10     2     3   ar
    11     3    22    1
    12    22    24    1
    13    24    25    1
    14    25    26    1
    15    25    27    1
    16    27    28    1
    17     3     4   ar
    18     4     5   ar
    19     5     6   ar
    20     6     7    1
    21     7     8   am
    22     7     9    2
    23    20    21   ar
    24    21    15   ar
    25     6     1   ar
    26    28    25    1
    27    12    13    1
    28    22    23    1
    29    26    29    1
    30    26    30    1
    31     8    10    1
    32     8    11    1
@<TRIPOS>MOLECULE
*****
 30 32 0 0 0
SMALL
GASTEIGER

@<TRIPOS>ATOM
      1 C         139.9711  140.0712  165.4508 C.ar    1  UNL1        0.0730
      2 C         140.2176  140.2425  166.9205 C.ar    1  UNL1        0.0322
      3 C         139.2204  139.7235  167.9137 C.ar    1  UNL1        0.0654
      4 C         137.9769  139.0333  167.4372 C.ar    1  UNL1        0.1133
      5 N         137.7304  138.8620  165.9675 N.ar    1  UNL1       -0.2367
      6 C         138.7275  139.3809  164.9743 C.ar    1  UNL1        0.1476
      7 C         138.4810  139.2096  163.5047 C.2     1  UNL1        0.2617
      8 N         137.6849  140.2350  162.7532 N.am    1  UNL1       -0.3240
      9 O         139.0308  138.0129  162.7865 O.2     1  UNL1       -0.2687
     10 H         137.3241  141.0204  163.2246 H       1  UNL1        0.1453
     11 H         137.5231  140.1225  161.7886 H       1  UNL1        0.1453
     12 N         140.9682  140.5901  164.4576 N.pl3   1  UNL1       -0.2966
     13 H         141.6094  139.9736  164.0358 H       1  UNL1        0.1537
     14 C         143.5590  145.0698  163.9873 C.3     1  UNL1        0.0312
     15 C         142.2838  144.2883  163.8720 C.ar    1  UNL1       -0.0179
     16 C         141.0289  144.9651  163.4062 C.ar    1  UNL1        0.0106
     17 C         139.7537  144.1837  163.2908 C.ar    1  UNL1        0.0605
     18 C         138.4988  144.8606  162.8250 C.3     1  UNL1        0.0521
     19 N         139.7335  142.7254  163.6413 N.ar    1  UNL1       -0.2349
     20 C         140.9884  142.0485  164.1071 C.ar    1  UNL1        0.1315
     21 C         142.2636  142.8300  164.2225 C.ar    1  UNL1        0.0301
     22 N         139.4669  139.8949  169.3833 N.pl3   1  UNL1       -0.3304
     23 H         139.5470  139.1042  169.9645 H       1  UNL1        0.1469
     24 C         139.5913  141.2709  169.9676 C.3     1  UNL1        0.1014
     25 C         140.8750  141.6970  170.6161 C.3     1  UNL1        0.0572
     26 N         140.8798  140.7858  171.8077 N.3     1  UNL1       -0.3219
     27 C         142.1569  142.4395  170.8509 C.3     1  UNL1        0.0173
     28 C         141.3160  142.7562  169.6499 C.3     1  UNL1        0.0173
     29 H         140.0458  140.1988  171.7902 H       1  UNL1        0.1188
     30 H         140.8855  141.3431  172.6619 H       1  UNL1        0.1188
@<TRIPOS>BOND
     1    14    15    1
     2    15    16   ar
     3    16    17   ar
     4    17    18    1
     5    17    19   ar
     6    19    20   ar
     7    20    12    1
     8    12     1    1
     9     1     2   ar
    10     2     3   ar
    11     3    22    1
    12    22    24    1
    13    24    25    1
    14    25    26    1
    15    25    27    1
    16    27    28    1
    17     3     4   ar
    18     4     5   ar
    19     5     6   ar
    20     6     7    1
    21     7     8   am
    22     7     9    2
    23    20    21   ar
    24    21    15   ar
    25     6     1   ar
    26    28    25    1
    27    12    13    1
    28    22    23    1
    29    26    29    1
    30    26    30    1
    31     8    10    1
    32     8    11    1
