@<TRIPOS>MOLECULE
*****
 27 30 0 0 0
SMALL
GASTEIGER

@<TRIPOS>ATOM
      1 C         140.3080  140.9865  164.5846 C.3     1  UNL1        0.1686
      2 C         141.3009  140.2449  163.7395 C.3     1  UNL1        0.0595
      3 C         140.9607  138.8872  163.2001 C.3     1  UNL1        0.0614
      4 C         140.2223  137.6183  162.8925 C.3     1  UNL1        0.0175
      5 C         138.8795  137.6908  163.5569 C.3     1  UNL1        0.0175
      6 C         138.7880  139.0044  164.2752 C.3     1  UNL1        0.0614
      7 C         138.9750  140.3704  164.8903 C.3     1  UNL1        0.0595
      8 N         140.0743  139.7439  164.0547 N.3     1  UNL1       -0.2713
      9 O         140.6481  142.3443  165.1240 O.3     1  UNL1       -0.4791
     10 C         141.9898  142.7970  169.3953 C.ar    1  UNL1        0.0533
     11 C         140.5840  143.1501  169.0094 C.ar    1  UNL1        0.0076
     12 C         140.1368  142.9992  167.5856 C.ar    1  UNL1        0.0370
     13 C         141.0954  142.4952  166.5478 C.ar    1  UNL1        0.1384
     14 C         142.5011  142.1421  166.9337 C.ar    1  UNL1        0.0370
     15 C         142.9484  142.2930  168.3575 C.ar    1  UNL1        0.0076
     16 N         143.5167  143.9297  171.1661 N.am    1  UNL1       -0.3253
     17 C         142.4371  142.9479  170.8191 C.2     1  UNL1        0.2427
     18 O         141.8047  142.1170  171.8960 O.2     1  UNL1       -0.2704
     19 H         143.8103  144.0287  172.1006 H       1  UNL1        0.1453
     20 H         143.9318  144.4751  170.4593 H       1  UNL1        0.1453
     21 C         140.4144  141.1016  164.5941 C.3     1  UNL1        0.0991
     22 C         139.8132  142.3275  163.9730 C.ar    1  UNL1       -0.0061
     23 C         138.4278  142.7585  164.3534 C.ar    1  UNL1       -0.0029
     24 C         137.8266  143.9844  163.7324 C.ar    1  UNL1       -0.0003
     25 C         138.6109  144.7793  162.7310 C.ar    1  UNL1       -0.0000
     26 C         139.9965  144.3484  162.3505 C.ar    1  UNL1       -0.0003
     27 C         140.5976  143.1224  162.9716 C.ar    1  UNL1       -0.0029
@<TRIPOS>BOND
     1    16    17   am
     2    17    18    2
     3    17    10    1
     4    10    11   ar
     5    11    12   ar
     6    12    13   ar
     7    13     9    1
     8     1     9    1
     9     1     2    1
    10     3     2    1
    11     3     4    1
    12     4     5    1
    13     6     5    1
    14     6     7    1
    15     6     8    1
    16     8    21    1
    17    21    22    1
    18    22    23   ar
    19    23    24   ar
    20    24    25   ar
    21    25    26   ar
    22    26    27   ar
    23    13    14   ar
    24    14    15   ar
    25    15    10   ar
    26     7     1    1
    27    27    22   ar
    28     8     3    1
    29    16    19    1
    30    16    20    1
@<TRIPOS>MOLECULE
*****
 27 30 0 0 0
SMALL
GASTEIGER

@<TRIPOS>ATOM
      1 C         140.3394  140.9905  164.5853 C.3     1  UNL1        0.1686
      2 C         139.4009  140.1127  165.3590 C.3     1  UNL1        0.0595
      3 C         139.0295  138.7600  164.8278 C.3     1  UNL1        0.0614
      4 C         138.9448  137.5453  163.9517 C.3     1  UNL1        0.0175
      5 C         139.8140  137.7780  162.7516 C.3     1  UNL1        0.0175
      6 C         140.4359  139.1364  162.8859 C.3     1  UNL1        0.0614
      7 C         140.9065  140.5155  163.2803 C.3     1  UNL1        0.0595
      8 N         139.9510  139.7433  164.1691 N.3     1  UNL1       -0.2713
      9 O         140.7109  142.3433  165.1165 O.3     1  UNL1       -0.4791
     10 C         142.0060  142.7997  169.4018 C.ar    1  UNL1        0.0533
     11 C         140.6034  143.1491  169.0009 C.ar    1  UNL1        0.0076
     12 C         140.1717  142.9969  167.5725 C.ar    1  UNL1        0.0370
     13 C         141.1426  142.4954  166.5449 C.ar    1  UNL1        0.1384
     14 C         142.5451  142.1460  166.9458 C.ar    1  UNL1        0.0370
     15 C         142.9768  142.2982  168.3742 C.ar    1  UNL1        0.0076
     16 N         143.5171  143.9302  171.1874 N.am    1  UNL1       -0.3253
     17 C         142.4377  142.9519  170.8303 C.2     1  UNL1        0.2427
     18 O         141.7900  142.1256  171.9016 O.2     1  UNL1       -0.2704
     19 H         143.8005  144.0301  172.1250 H       1  UNL1        0.1453
     20 H         143.9423  144.4725  170.4843 H       1  UNL1        0.1453
     21 C         140.3225  141.0960  164.7003 C.3     1  UNL1        0.0991
     22 C         139.7758  142.3328  164.0511 C.ar    1  UNL1       -0.0061
     23 C         138.3354  142.7056  164.2413 C.ar    1  UNL1       -0.0029
     24 C         137.7887  143.9423  163.5921 C.ar    1  UNL1       -0.0003
     25 C         138.6824  144.8063  162.7526 C.ar    1  UNL1       -0.0000
     26 C         140.1229  144.4335  162.5623 C.ar    1  UNL1       -0.0003
     27 C         140.6695  143.1967  163.2116 C.ar    1  UNL1       -0.0029
@<TRIPOS>BOND
     1    16    17   am
     2    17    18    2
     3    17    10    1
     4    10    11   ar
     5    11    12   ar
     6    12    13   ar
     7    13     9    1
     8     1     9    1
     9     1     2    1
    10     3     2    1
    11     3     4    1
    12     4     5    1
    13     6     5    1
    14     6     7    1
    15     6     8    1
    16     8    21    1
    17    21    22    1
    18    22    23   ar
    19    23    24   ar
    20    24    25   ar
    21    25    26   ar
    22    26    27   ar
    23    13    14   ar
    24    14    15   ar
    25    15    10   ar
    26     7     1    1
    27    27    22   ar
    28     8     3    1
    29    16    19    1
    30    16    20    1
@<TRIPOS>MOLECULE
*****
 27 30 0 0 0
SMALL
GASTEIGER

@<TRIPOS>ATOM
      1 C         139.5375  140.6342  164.5473 C.3     1  UNL1        0.1686
      2 C         140.8770  140.0420  164.2232 C.3     1  UNL1        0.0595
      3 C         140.9723  138.8618  163.3024 C.3     1  UNL1        0.0614
      4 C         140.6020  137.7401  162.3779 C.3     1  UNL1        0.0175
      5 C         139.1103  137.7424  162.2206 C.3     1  UNL1        0.0175
      6 C         138.5586  138.8656  163.0477 C.3     1  UNL1        0.0614
      7 C         138.2932  140.0460  163.9506 C.3     1  UNL1        0.0595
      8 N         139.7094  139.5574  163.7163 N.3     1  UNL1       -0.2713
      9 O         139.4421  141.8144  165.4682 O.3     1  UNL1       -0.4791
     10 C         140.7949  141.4469  169.7442 C.ar    1  UNL1        0.0533
     11 C         140.0830  140.3047  169.0820 C.ar    1  UNL1        0.0076
     12 C         139.6321  140.4272  167.6567 C.ar    1  UNL1        0.0370
     13 C         139.8930  141.6919  166.8936 C.ar    1  UNL1        0.1384
     14 C         140.6048  142.8342  167.5557 C.ar    1  UNL1        0.0370
     15 C         141.0558  142.7117  168.9811 C.ar    1  UNL1        0.0076
     16 N         142.3990  140.4304  171.5173 N.am    1  UNL1       -0.3253
     17 C         141.2458  141.3244  171.1696 C.2     1  UNL1        0.2427
     18 O         140.5435  142.0959  172.2474 O.2     1  UNL1       -0.2704
     19 H         142.6949  140.3500  172.4528 H       1  UNL1        0.1453
     20 H         142.8599  139.9240  170.8099 H       1  UNL1        0.1453
     21 C         139.6141  140.7377  164.6371 C.3     1  UNL1        0.0991
     22 C         139.3148  142.0991  164.0830 C.ar    1  UNL1       -0.0061
     23 C         137.9393  142.6805  164.2244 C.ar    1  UNL1       -0.0029
     24 C         137.6399  144.0418  163.6703 C.ar    1  UNL1       -0.0003
     25 C         138.7160  144.8218  162.9749 C.ar    1  UNL1       -0.0000
     26 C         140.0916  144.2403  162.8335 C.ar    1  UNL1       -0.0003
     27 C         140.3909  142.8789  163.3876 C.ar    1  UNL1       -0.0029
@<TRIPOS>BOND
     1    16    17   am
     2    17    18    2
     3    17    10    1
     4    10    11   ar
     5    11    12   ar
     6    12    13   ar
     7    13     9    1
     8     1     9    1
     9     1     2    1
    10     3     2    1
    11     3     4    1
    12     4     5    1
    13     6     5    1
    14     6     7    1
    15     6     8    1
    16     8    21    1
    17    21    22    1
    18    22    23   ar
    19    23    24   ar
    20    24    25   ar
    21    25    26   ar
    22    26    27   ar
    23    13    14   ar
    24    14    15   ar
    25    15    10   ar
    26     7     1    1
    27    27    22   ar
    28     8     3    1
    29    16    19    1
    30    16    20    1
@<TRIPOS>MOLECULE
*****
 27 30 0 0 0
SMALL
GASTEIGER

@<TRIPOS>ATOM
      1 C         141.8574  141.0028  164.6969 C.3     1  UNL1        0.1686
      2 C         143.1411  140.5605  165.3345 C.3     1  UNL1        0.0595
      3 C         144.4456  140.7866  164.6292 C.3     1  UNL1        0.0614
      4 C         145.4609  141.1997  163.6053 C.3     1  UNL1        0.0175
      5 C         144.7317  141.8408  162.4620 C.3     1  UNL1        0.0175
      6 C         143.2657  141.8239  162.7793 C.3     1  UNL1        0.0614
      7 C         141.8782  141.6710  163.3541 C.3     1  UNL1        0.0595
      8 N         143.0889  141.1724  164.1188 N.3     1  UNL1       -0.2713
      9 O         140.5529  140.7767  165.4021 O.3     1  UNL1       -0.4791
     10 C         140.0287  142.1450  169.6568 C.ar    1  UNL1        0.0533
     11 C         139.8021  140.7062  169.2983 C.ar    1  UNL1        0.0076
     12 C         139.9769  140.2501  167.8801 C.ar    1  UNL1        0.0370
     13 C         140.3782  141.2328  166.8203 C.ar    1  UNL1        0.1384
     14 C         140.6047  142.6716  167.1787 C.ar    1  UNL1        0.0370
     15 C         140.4300  143.1277  168.5970 C.ar    1  UNL1        0.0076
     16 N         138.8345  143.6507  171.4052 N.am    1  UNL1       -0.3253
     17 C         139.8540  142.6011  171.0751 C.2     1  UNL1        0.2427
     18 O         140.6986  142.0075  172.1633 O.2     1  UNL1       -0.2704
     19 H         138.7199  143.9501  172.3360 H       1  UNL1        0.1453
     20 H         138.2801  144.0403  170.6910 H       1  UNL1        0.1453
     21 C         141.7845  140.9464  164.8240 C.3     1  UNL1        0.0991
     22 C         140.8402  139.8890  164.3337 C.ar    1  UNL1       -0.0061
     23 C         139.5897  140.2802  163.6036 C.ar    1  UNL1       -0.0029
     24 C         138.6455  139.2229  163.1134 C.ar    1  UNL1       -0.0003
     25 C         138.9517  137.7743  163.3533 C.ar    1  UNL1       -0.0000
     26 C         140.2023  137.3829  164.0835 C.ar    1  UNL1       -0.0003
     27 C         141.1465  138.4404  164.5737 C.ar    1  UNL1       -0.0029
@<TRIPOS>BOND
     1    16    17   am
     2    17    18    2
     3    17    10    1
     4    10    11   ar
     5    11    12   ar
     6    12    13   ar
     7    13     9    1
     8     1     9    1
     9     1     2    1
    10     3     2    1
    11     3     4    1
    12     4     5    1
    13     6     5    1
    14     6     7    1
    15     6     8    1
    16     8    21    1
    17    21    22    1
    18    22    23   ar
    19    23    24   ar
    20    24    25   ar
    21    25    26   ar
    22    26    27   ar
    23    13    14   ar
    24    14    15   ar
    25    15    10   ar
    26     7     1    1
    27    27    22   ar
    28     8     3    1
    29    16    19    1
    30    16    20    1
@<TRIPOS>MOLECULE
*****
 27 30 0 0 0
SMALL
GASTEIGER

@<TRIPOS>ATOM
      1 C         139.4757  141.4536  164.6788 C.3     1  UNL1        0.1686
      2 C         140.3928  142.6321  164.5371 C.3     1  UNL1        0.0595
      3 C         139.8970  143.8959  163.8991 C.3     1  UNL1        0.0614
      4 C         139.0097  144.9028  163.2291 C.3     1  UNL1        0.0175
      5 C         137.6645  144.2716  163.0244 C.3     1  UNL1        0.0175
      6 C         137.7203  142.8746  163.5679 C.3     1  UNL1        0.0614
      7 C         138.0627  141.5389  164.1825 C.3     1  UNL1        0.0595
      8 N         139.1001  142.6424  164.1085 N.3     1  UNL1       -0.2713
      9 O         139.9715  140.1898  165.3168 O.3     1  UNL1       -0.4791
     10 C         141.7177  140.2974  169.4628 C.ar    1  UNL1        0.0533
     11 C         142.6237  140.2886  168.2673 C.ar    1  UNL1        0.0076
     12 C         142.0417  140.2527  166.8854 C.ar    1  UNL1        0.0370
     13 C         140.5536  140.2257  166.6988 C.ar    1  UNL1        0.1384
     14 C         139.6475  140.2344  167.8941 C.ar    1  UNL1        0.0370
     15 C         140.2296  140.2703  169.2762 C.ar    1  UNL1        0.0076
     16 N         143.5613  139.5802  171.1470 N.am    1  UNL1       -0.3253
     17 C         142.2997  140.3332  170.8448 C.2     1  UNL1        0.2427
     18 O         141.6202  141.1221  171.9245 O.2     1  UNL1       -0.2704
     19 H         143.9433  139.6038  172.0541 H       1  UNL1        0.1453
     20 H         144.0073  139.0624  170.4384 H       1  UNL1        0.1453
     21 C         139.5959  141.3786  164.7465 C.3     1  UNL1        0.0991
     22 C         139.7920  140.1456  163.9151 C.ar    1  UNL1       -0.0061
     23 C         140.9522  140.0558  162.9687 C.ar    1  UNL1       -0.0029
     24 C         141.1482  138.8229  162.1373 C.ar    1  UNL1       -0.0003
     25 C         140.1840  137.6796  162.2523 C.ar    1  UNL1       -0.0000
     26 C         139.0237  137.7694  163.1988 C.ar    1  UNL1       -0.0003
     27 C         138.8277  139.0024  164.0301 C.ar    1  UNL1       -0.0029
@<TRIPOS>BOND
     1    16    17   am
     2    17    18    2
     3    17    10    1
     4    10    11   ar
     5    11    12   ar
     6    12    13   ar
     7    13     9    1
     8     1     9    1
     9     1     2    1
    10     3     2    1
    11     3     4    1
    12     4     5    1
    13     6     5    1
    14     6     7    1
    15     6     8    1
    16     8    21    1
    17    21    22    1
    18    22    23   ar
    19    23    24   ar
    20    24    25   ar
    21    25    26   ar
    22    26    27   ar
    23    13    14   ar
    24    14    15   ar
    25    15    10   ar
    26     7     1    1
    27    27    22   ar
    28     8     3    1
    29    16    19    1
    30    16    20    1
@<TRIPOS>MOLECULE
*****
 27 30 0 0 0
SMALL
GASTEIGER

@<TRIPOS>ATOM
      1 C         141.7094  141.8847  164.3617 C.3     1  UNL1        0.1686
      2 C         142.9391  142.6199  164.8057 C.3     1  UNL1        0.0595
      3 C         144.2222  142.4635  164.0446 C.3     1  UNL1        0.0614
      4 C         145.2326  142.0245  163.0266 C.3     1  UNL1        0.0175
      5 C         144.5533  141.0852  162.0746 C.3     1  UNL1        0.0175
      6 C         143.1231  140.9437  162.5042 C.3     1  UNL1        0.0614
      7 C         141.7627  140.9931  163.1567 C.3     1  UNL1        0.0595
      8 N         142.9185  141.7955  163.7218 N.3     1  UNL1       -0.2713
      9 O         140.4262  142.0411  165.1228 O.3     1  UNL1       -0.4791
     10 C         140.3017  141.1467  169.5312 C.ar    1  UNL1        0.0533
     11 C         140.5480  142.5483  169.0570 C.ar    1  UNL1        0.0076
     12 C         140.5895  142.8464  167.5876 C.ar    1  UNL1        0.0370
     13 C         140.3847  141.7430  166.5923 C.ar    1  UNL1        0.1384
     14 C         140.1385  140.3414  167.0665 C.ar    1  UNL1        0.0370
     15 C         140.0970  140.0433  168.5360 C.ar    1  UNL1        0.0076
     16 N         139.9532  139.4593  171.4758 N.am    1  UNL1       -0.3253
     17 C         140.2602  140.8486  171.0008 C.2     1  UNL1        0.2427
     18 O         140.5258  141.9397  171.9952 O.2     1  UNL1       -0.2704
     19 H         139.9260  139.2636  172.4403 H       1  UNL1        0.1453
     20 H         139.7790  138.7432  170.8231 H       1  UNL1        0.1453
     21 C         141.6354  141.9520  164.4828 C.3     1  UNL1        0.0991
     22 C         140.5012  142.7331  163.8883 C.ar    1  UNL1       -0.0061
     23 C         139.3212  142.0149  163.3036 C.ar    1  UNL1       -0.0029
     24 C         138.1870  142.7959  162.7092 C.ar    1  UNL1       -0.0003
     25 C         138.2327  144.2952  162.6994 C.ar    1  UNL1       -0.0000
     26 C         139.4127  145.0134  163.2841 C.ar    1  UNL1       -0.0003
     27 C         140.5469  144.2323  163.8786 C.ar    1  UNL1       -0.0029
@<TRIPOS>BOND
     1    16    17   am
     2    17    18    2
     3    17    10    1
     4    10    11   ar
     5    11    12   ar
     6    12    13   ar
     7    13     9    1
     8     1     9    1
     9     1     2    1
    10     3     2    1
    11     3     4    1
    12     4     5    1
    13     6     5    1
    14     6     7    1
    15     6     8    1
    16     8    21    1
    17    21    22    1
    18    22    23   ar
    19    23    24   ar
    20    24    25   ar
    21    25    26   ar
    22    26    27   ar
    23    13    14   ar
    24    14    15   ar
    25    15    10   ar
    26     7     1    1
    27    27    22   ar
    28     8     3    1
    29    16    19    1
    30    16    20    1
@<TRIPOS>MOLECULE
*****
 27 30 0 0 0
SMALL
GASTEIGER

@<TRIPOS>ATOM
      1 C         141.4583  142.9624  164.5435 C.3     1  UNL1        0.1686
      2 C         140.0410  142.7392  164.1060 C.3     1  UNL1        0.0595
      3 C         139.3355  143.7807  163.2890 C.3     1  UNL1        0.0614
      4 C         139.0443  145.0366  162.5222 C.3     1  UNL1        0.0175
      5 C         140.2736  145.8956  162.5557 C.3     1  UNL1        0.0175
      6 C         141.3245  145.1705  163.3431 C.3     1  UNL1        0.0614
      7 C         142.1701  144.2270  164.1639 C.3     1  UNL1        0.0595
      8 N         140.7447  143.8635  163.7963 N.3     1  UNL1       -0.2713
      9 O         142.1639  141.9209  165.3606 O.3     1  UNL1       -0.4791
     10 C         140.8842  141.1424  169.6039 C.ar    1  UNL1        0.0533
     11 C         141.9893  142.1163  169.3205 C.ar    1  UNL1        0.0076
     12 C         142.4158  142.3757  167.9061 C.ar    1  UNL1        0.0370
     13 C         141.7373  141.6614  166.7751 C.ar    1  UNL1        0.1384
     14 C         140.6322  140.6876  167.0584 C.ar    1  UNL1        0.0370
     15 C         140.2056  140.4281  168.4729 C.ar    1  UNL1        0.0076
     16 N         139.9237  139.5357  171.4056 N.am    1  UNL1       -0.3253
     17 C         140.4576  140.8829  171.0184 C.2     1  UNL1        0.2427
     18 O         140.5648  141.9707  172.0456 O.2     1  UNL1       -0.2704
     19 H         139.6437  139.3654  172.3339 H       1  UNL1        0.1453
     20 H         139.8533  138.8217  170.7314 H       1  UNL1        0.1453
     21 C         141.4502  142.8220  164.6133 C.3     1  UNL1        0.0991
     22 C         142.7017  142.1803  164.0917 C.ar    1  UNL1       -0.0061
     23 C         142.6114  141.0272  163.1367 C.ar    1  UNL1       -0.0029
     24 C         143.8628  140.3856  162.6152 C.ar    1  UNL1       -0.0003
     25 C         145.2047  140.8971  163.0486 C.ar    1  UNL1       -0.0000
     26 C         145.2950  142.0503  164.0037 C.ar    1  UNL1       -0.0003
     27 C         144.0435  142.6919  164.5252 C.ar    1  UNL1       -0.0029
@<TRIPOS>BOND
     1    16    17   am
     2    17    18    2
     3    17    10    1
     4    10    11   ar
     5    11    12   ar
     6    12    13   ar
     7    13     9    1
     8     1     9    1
     9     1     2    1
    10     3     2    1
    11     3     4    1
    12     4     5    1
    13     6     5    1
    14     6     7    1
    15     6     8    1
    16     8    21    1
    17    21    22    1
    18    22    23   ar
    19    23    24   ar
    20    24    25   ar
    21    25    26   ar
    22    26    27   ar
    23    13    14   ar
    24    14    15   ar
    25    15    10   ar
    26     7     1    1
    27    27    22   ar
    28     8     3    1
    29    16    19    1
    30    16    20    1
@<TRIPOS>MOLECULE
*****
 27 30 0 0 0
SMALL
GASTEIGER

@<TRIPOS>ATOM
      1 C         140.6336  141.4856  167.0163 C.3     1  UNL1        0.1686
      2 C         142.0091  142.0705  166.8908 C.3     1  UNL1        0.0595
      3 C         142.9190  142.1098  168.0827 C.3     1  UNL1        0.0614
      4 C         143.4559  141.9455  169.4736 C.3     1  UNL1        0.0175
      5 C         142.3929  141.2928  170.3067 C.3     1  UNL1        0.0175
      6 C         141.1990  141.0536  169.4306 C.3     1  UNL1        0.0614
      7 C         140.1680  140.9399  168.3337 C.3     1  UNL1        0.0595
      8 N         141.5242  141.5586  168.0561 N.3     1  UNL1       -0.2713
      9 O         139.7237  141.4462  165.8244 O.3     1  UNL1       -0.4791
     10 C         140.1375  144.5317  162.5751 C.ar    1  UNL1        0.0533
     11 C         139.3917  144.8632  163.8336 C.ar    1  UNL1        0.0076
     12 C         139.2538  143.8348  164.9166 C.ar    1  UNL1        0.0370
     13 C         139.8616  142.4747  164.7413 C.ar    1  UNL1        0.1384
     14 C         140.6074  142.1432  163.4829 C.ar    1  UNL1        0.0370
     15 C         140.7454  143.1717  162.3997 C.ar    1  UNL1        0.0076
     16 N         141.4799  145.5509  160.5979 N.am    1  UNL1       -0.3253
     17 C         140.2755  145.5602  161.4919 C.2     1  UNL1        0.2427
     18 O         139.2091  146.5980  161.3029 O.2     1  UNL1       -0.2704
     19 H         141.5704  146.2260  159.8870 H       1  UNL1        0.1453
     20 H         142.1798  144.8698  160.7219 H       1  UNL1        0.1453
     21 C         140.6143  141.5193  166.8642 C.3     1  UNL1        0.0991
     22 C         140.1468  140.2017  166.3206 C.ar    1  UNL1       -0.0061
     23 C         141.1101  139.3009  165.6060 C.ar    1  UNL1       -0.0029
     24 C         140.6427  137.9834  165.0625 C.ar    1  UNL1       -0.0003
     25 C         139.2119  137.5667  165.2334 C.ar    1  UNL1       -0.0000
     26 C         138.2485  138.4675  165.9480 C.ar    1  UNL1       -0.0003
     27 C         138.7161  139.7851  166.4915 C.ar    1  UNL1       -0.0029
@<TRIPOS>BOND
     1    16    17   am
     2    17    18    2
     3    17    10    1
     4    10    11   ar
     5    11    12   ar
     6    12    13   ar
     7    13     9    1
     8     1     9    1
     9     1     2    1
    10     3     2    1
    11     3     4    1
    12     4     5    1
    13     6     5    1
    14     6     7    1
    15     6     8    1
    16     8    21    1
    17    21    22    1
    18    22    23   ar
    19    23    24   ar
    20    24    25   ar
    21    25    26   ar
    22    26    27   ar
    23    13    14   ar
    24    14    15   ar
    25    15    10   ar
    26     7     1    1
    27    27    22   ar
    28     8     3    1
    29    16    19    1
    30    16    20    1
