@<TRIPOS>MOLECULE
*****
 40 45 0 0 0
SMALL
GASTEIGER

@<TRIPOS>ATOM
      1 C         143.3939  138.3519  156.8349 C.2     1  UNL1        0.2425
      2 O         143.9672  139.6175  157.4003 O.2     1  UNL1       -0.2733
      3 N         142.5437  137.4641  157.6945 N.am    1  UNL1       -0.3018
      4 H         142.1674  136.6334  157.3235 H       1  UNL1        0.1495
      5 C         142.2668  137.8419  159.1195 C.3     1  UNL1        0.1035
      6 C         142.9784  137.6480  160.4257 C.3     1  UNL1        0.0933
      7 N         141.8753  138.3763  161.1348 N.3     1  UNL1       -0.2711
      8 C         141.1637  138.5702  159.8286 C.3     1  UNL1        0.0933
      9 C         141.5984  138.7541  162.5598 C.3     1  UNL1        0.0576
     10 C         140.9934  137.7518  163.4975 C.3     1  UNL1        0.0163
     11 C         140.7165  138.1296  164.9224 C.3     1  UNL1        0.0057
     12 C         141.0446  139.5098  165.4098 C.3     1  UNL1        0.0225
     13 C         141.6497  140.5121  164.4721 C.3     1  UNL1        0.0057
     14 C         141.9266  140.1343  163.0471 C.3     1  UNL1        0.0163
     15 C         140.7677  139.8875  166.8347 C.ar    1  UNL1       -0.0193
     16 C         139.3957  139.6930  167.4091 C.ar    1  UNL1       -0.0010
     17 C         139.1186  140.0707  168.8341 C.ar    1  UNL1        0.0399
     18 C         140.2136  140.6429  169.6847 C.ar    1  UNL1        0.1764
     19 C         141.5856  140.8374  169.1104 C.ar    1  UNL1        0.1761
     20 C         141.8626  140.4597  167.6854 C.ar    1  UNL1        0.0359
     21 O         142.4586  141.4191  170.1825 O.3     1  UNL1       -0.4346
     22 C         141.6262  141.5841  171.4194 C.3     1  UNL1        0.4294
     23 O         140.2387  141.1044  171.1118 O.3     1  UNL1       -0.4346
     24 C         143.6708  137.9740  155.4100 C.3     1  UNL1        0.1747
     25 N         144.1855  136.6033  155.0839 N.pl3   1  UNL1       -0.3093
     26 H         145.1394  136.3934  155.2075 H       1  UNL1        0.1487
     27 C         140.4155  134.1609  152.3086 C.3     1  UNL1        0.1537
     28 N         141.5140  134.4297  153.2941 N.ar    1  UNL1       -0.2476
     29 N         142.2285  135.7349  153.4836 N.ar    1  UNL1       -0.1544
     30 C         143.2468  135.5523  154.5697 C.ar    1  UNL1        0.1500
     31 C         143.1617  134.1343  155.0514 C.ar    1  UNL1        0.0503
     32 C         143.9210  133.3853  156.1061 C.ar    1  UNL1        0.0082
     33 C         143.6093  131.9424  156.3723 C.ar    1  UNL1        0.0716
     34 C         142.5384  131.2486  155.5839 C.ar    1  UNL1        0.0054
     35 C         141.7791  131.9976  154.5292 C.ar    1  UNL1        0.0188
     36 C         142.0907  133.4405  154.2630 C.ar    1  UNL1        0.0807
     37 C         144.3687  131.1933  157.4270 C.3     1  UNL1        0.4186
     38 F         145.1280  130.4442  158.4816 F       1  UNL1       -0.1659
     39 F         145.6096  131.9605  157.0785 F       1  UNL1       -0.1659
     40 F         143.1278  130.4261  157.7755 F       1  UNL1       -0.1659
@<TRIPOS>BOND
     1    27    28    1
     2    28    29   ar
     3    29    30   ar
     4    30    25    1
     5    25    24    1
     6    24     1    1
     7     1     2    2
     8     1     3   am
     9     3     5    1
    10     5     6    1
    11     6     7    1
    12     9     7    1
    13     9    10    1
    14    10    11    1
    15    11    12    1
    16    12    15    1
    17    15    16   ar
    18    16    17   ar
    19    17    18   ar
    20    18    19   ar
    21    19    20   ar
    22    19    21    1
    23    21    22    1
    24    22    23    1
    25    12    13    1
    26    13    14    1
    27     7     8    1
    28    30    31   ar
    29    31    32   ar
    30    32    33   ar
    31    33    37    1
    32    37    38    1
    33    37    39    1
    34    37    40    1
    35    33    34   ar
    36    34    35   ar
    37    35    36   ar
    38    36    28   ar
    39     8     5    1
    40    36    31   ar
    41    14     9    1
    42    20    15   ar
    43    23    18    1
    44    25    26    1
    45     3     4    1
@<TRIPOS>MOLECULE
*****
 40 45 0 0 0
SMALL
GASTEIGER

@<TRIPOS>ATOM
      1 C         141.7431  137.3068  156.9598 C.2     1  UNL1        0.2425
      2 O         140.3925  137.7689  157.4208 O.2     1  UNL1       -0.2733
      3 N         142.9399  137.4856  157.8462 N.am    1  UNL1       -0.3018
      4 H         143.8262  137.1823  157.5436 H       1  UNL1        0.1495
      5 C         142.7861  138.1267  159.1936 C.3     1  UNL1        0.1035
      6 C         142.7786  139.5379  159.7022 C.3     1  UNL1        0.0933
      7 N         142.5686  139.0333  161.0990 N.3     1  UNL1       -0.2711
      8 C         142.5760  137.6222  160.5905 C.3     1  UNL1        0.0933
      9 C         142.4148  139.6744  162.4464 C.3     1  UNL1        0.0576
     10 C         141.1438  140.3901  162.7958 C.3     1  UNL1        0.0163
     11 C         140.9900  141.0311  164.1431 C.3     1  UNL1        0.0057
     12 C         142.1073  140.9564  165.1412 C.3     1  UNL1        0.0225
     13 C         143.3783  140.2406  164.7919 C.3     1  UNL1        0.0057
     14 C         143.5321  139.5996  163.4445 C.3     1  UNL1        0.0163
     15 C         141.9534  141.5975  166.4885 C.ar    1  UNL1       -0.0193
     16 C         140.5970  142.0264  166.9644 C.ar    1  UNL1       -0.0010
     17 C         140.4430  142.6675  168.3118 C.ar    1  UNL1        0.0399
     18 C         141.6453  142.8796  169.1832 C.ar    1  UNL1        0.1764
     19 C         143.0016  142.4507  168.7073 C.ar    1  UNL1        0.1761
     20 C         143.1556  141.8096  167.3600 C.ar    1  UNL1        0.0359
     21 O         143.9964  142.7867  169.7786 O.3     1  UNL1       -0.4346
     22 C         143.2548  143.4232  170.9165 C.3     1  UNL1        0.4294
     23 O         141.8018  143.4807  170.5486 O.3     1  UNL1       -0.4346
     24 C         141.8968  136.6657  155.6125 C.3     1  UNL1        0.1747
     25 N         141.5023  135.2321  155.4145 N.pl3   1  UNL1       -0.3093
     26 H         140.6987  135.0105  154.8906 H       1  UNL1        0.1487
     27 C         145.1881  132.6749  158.1994 C.3     1  UNL1        0.1537
     28 N         144.0261  132.9607  157.2949 N.ar    1  UNL1       -0.2476
     29 N         143.4951  134.3190  156.9442 N.ar    1  UNL1       -0.1544
     30 C         142.3319  134.1361  156.0149 C.ar    1  UNL1        0.1500
     31 C         142.1441  132.6648  155.7913 C.ar    1  UNL1        0.0503
     32 C         141.1549  131.8927  154.9696 C.ar    1  UNL1        0.0082
     33 C         141.2128  130.3942  154.9389 C.ar    1  UNL1        0.0716
     34 C         142.2598  129.6677  155.7301 C.ar    1  UNL1        0.0054
     35 C         143.2490  130.4398  156.5518 C.ar    1  UNL1        0.0188
     36 C         143.1912  131.9383  156.5824 C.ar    1  UNL1        0.0807
     37 C         140.2235  129.6220  154.1172 C.3     1  UNL1        0.4186
     38 F         139.2344  128.8499  153.2954 F       1  UNL1       -0.1659
     39 F         141.1175  129.7512  152.9197 F       1  UNL1       -0.1659
     40 F         139.3295  129.4928  155.3147 F       1  UNL1       -0.1659
@<TRIPOS>BOND
     1    27    28    1
     2    28    29   ar
     3    29    30   ar
     4    30    25    1
     5    25    24    1
     6    24     1    1
     7     1     2    2
     8     1     3   am
     9     3     5    1
    10     5     6    1
    11     6     7    1
    12     9     7    1
    13     9    10    1
    14    10    11    1
    15    11    12    1
    16    12    15    1
    17    15    16   ar
    18    16    17   ar
    19    17    18   ar
    20    18    19   ar
    21    19    20   ar
    22    19    21    1
    23    21    22    1
    24    22    23    1
    25    12    13    1
    26    13    14    1
    27     7     8    1
    28    30    31   ar
    29    31    32   ar
    30    32    33   ar
    31    33    37    1
    32    37    38    1
    33    37    39    1
    34    37    40    1
    35    33    34   ar
    36    34    35   ar
    37    35    36   ar
    38    36    28   ar
    39     8     5    1
    40    36    31   ar
    41    14     9    1
    42    20    15   ar
    43    23    18    1
    44    25    26    1
    45     3     4    1
@<TRIPOS>MOLECULE
*****
 40 45 0 0 0
SMALL
GASTEIGER

@<TRIPOS>ATOM
      1 C         138.1516  142.6441  161.9970 C.2     1  UNL1        0.2425
      2 O         137.3451  141.3797  162.0258 O.2     1  UNL1       -0.2733
      3 N         139.3462  142.7515  161.0963 N.am    1  UNL1       -0.3018
      4 H         139.8755  143.5814  161.0774 H       1  UNL1        0.1495
      5 C         139.7343  141.5943  160.2243 C.3     1  UNL1        0.1035
      6 C         139.9175  140.1207  160.4368 C.3     1  UNL1        0.0933
      7 N         140.2832  139.9578  158.9912 N.3     1  UNL1       -0.2711
      8 C         140.1000  141.4313  158.7788 C.3     1  UNL1        0.0933
      9 C         140.6713  138.8006  158.1192 C.3     1  UNL1        0.0576
     10 C         142.0640  138.2471  158.1835 C.3     1  UNL1        0.0163
     11 C         142.4521  137.0900  157.3116 C.3     1  UNL1        0.0057
     12 C         141.4476  136.4863  156.3753 C.3     1  UNL1        0.0225
     13 C         140.0550  137.0398  156.3110 C.3     1  UNL1        0.0057
     14 C         139.6668  138.1970  157.1830 C.3     1  UNL1        0.0163
     15 C         141.8358  135.3292  155.5034 C.ar    1  UNL1       -0.0193
     16 C         141.5374  135.3642  154.0337 C.ar    1  UNL1       -0.0010
     17 C         141.9256  134.2071  153.1617 C.ar    1  UNL1        0.0399
     18 C         142.6123  133.0150  153.7593 C.ar    1  UNL1        0.1764
     19 C         142.9108  132.9799  155.2289 C.ar    1  UNL1        0.1761
     20 C         142.5226  134.1370  156.1009 C.ar    1  UNL1        0.0359
     21 O         143.5932  131.6791  155.5323 O.3     1  UNL1       -0.4346
     22 C         143.7165  130.9102  154.2502 C.3     1  UNL1        0.4294
     23 O         143.1103  131.7358  153.1544 O.3     1  UNL1       -0.4346
     24 C         137.7634  143.8013  162.8690 C.3     1  UNL1        0.1747
     25 N         138.3086  143.9063  164.2626 N.pl3   1  UNL1       -0.3093
     26 H         137.7976  144.3824  164.9564 H       1  UNL1        0.1487
     27 C         143.4882  143.2363  165.0389 C.3     1  UNL1        0.1537
     28 N         142.0130  142.9779  164.9557 N.ar    1  UNL1       -0.2476
     29 N         140.9668  143.9677  164.5366 N.ar    1  UNL1       -0.1544
     30 C         139.6322  143.2858  164.5988 C.ar    1  UNL1        0.1500
     31 C         139.8536  141.8745  165.0563 C.ar    1  UNL1        0.0503
     32 C         138.9054  140.7382  165.3005 C.ar    1  UNL1        0.0082
     33 C         139.4287  139.4115  165.7653 C.ar    1  UNL1        0.0716
     34 C         140.9002  139.2212  165.9858 C.ar    1  UNL1        0.0054
     35 C         141.8483  140.3575  165.7416 C.ar    1  UNL1        0.0188
     36 C         141.3250  141.6842  165.2768 C.ar    1  UNL1        0.0807
     37 C         138.4806  138.2751  166.0095 C.3     1  UNL1        0.4186
     38 F         137.5324  137.1388  166.2538 F       1  UNL1       -0.1659
     39 F         137.5580  139.2026  166.7433 F       1  UNL1       -0.1659
     40 F         139.4032  137.3476  165.2758 F       1  UNL1       -0.1659
@<TRIPOS>BOND
     1    27    28    1
     2    28    29   ar
     3    29    30   ar
     4    30    25    1
     5    25    24    1
     6    24     1    1
     7     1     2    2
     8     1     3   am
     9     3     5    1
    10     5     6    1
    11     6     7    1
    12     9     7    1
    13     9    10    1
    14    10    11    1
    15    11    12    1
    16    12    15    1
    17    15    16   ar
    18    16    17   ar
    19    17    18   ar
    20    18    19   ar
    21    19    20   ar
    22    19    21    1
    23    21    22    1
    24    22    23    1
    25    12    13    1
    26    13    14    1
    27     7     8    1
    28    30    31   ar
    29    31    32   ar
    30    32    33   ar
    31    33    37    1
    32    37    38    1
    33    37    39    1
    34    37    40    1
    35    33    34   ar
    36    34    35   ar
    37    35    36   ar
    38    36    28   ar
    39     8     5    1
    40    36    31   ar
    41    14     9    1
    42    20    15   ar
    43    23    18    1
    44    25    26    1
    45     3     4    1
@<TRIPOS>MOLECULE
*****
 40 45 0 0 0
SMALL
GASTEIGER

@<TRIPOS>ATOM
      1 C         137.1752  141.5000  156.8664 C.2     1  UNL1        0.2425
      2 O         137.3451  142.8539  157.4893 O.2     1  UNL1       -0.2733
      3 N         137.4378  140.2641  157.6749 N.am    1  UNL1       -0.3018
      4 H         137.3262  139.3755  157.2661 H       1  UNL1        0.1495
      5 C         137.8704  140.3823  159.1063 C.3     1  UNL1        0.1035
      6 C         138.9679  141.1086  159.8262 C.3     1  UNL1        0.0933
      7 N         138.4822  140.5494  161.1306 N.3     1  UNL1       -0.2711
      8 C         137.3848  139.8232  160.4107 C.3     1  UNL1        0.0933
      9 C         138.9148  140.6675  162.5620 C.3     1  UNL1        0.0576
     10 C         140.2040  140.0449  163.0097 C.3     1  UNL1        0.0163
     11 C         140.6366  140.1630  164.4410 C.3     1  UNL1        0.0057
     12 C         139.7800  140.9037  165.4248 C.3     1  UNL1        0.0225
     13 C         138.4909  141.5263  164.9771 C.3     1  UNL1        0.0057
     14 C         138.0583  141.4082  163.5457 C.3     1  UNL1        0.0163
     15 C         140.2127  141.0218  166.8561 C.ar    1  UNL1       -0.0193
     16 C         139.5628  140.1732  167.9086 C.ar    1  UNL1       -0.0010
     17 C         139.9954  140.2911  169.3400 C.ar    1  UNL1        0.0399
     18 C         141.0780  141.2577  169.7190 C.ar    1  UNL1        0.1764
     19 C         141.7279  142.1063  168.6666 C.ar    1  UNL1        0.1761
     20 C         141.2953  141.9884  167.2352 C.ar    1  UNL1        0.0359
     21 O         142.7608  142.9641  169.3356 O.3     1  UNL1       -0.4346
     22 C         142.7491  142.6456  170.8013 C.3     1  UNL1        0.4294
     23 O         141.7091  141.5910  171.0383 O.3     1  UNL1       -0.4346
     24 C         136.7426  141.3819  155.4350 C.3     1  UNL1        0.1747
     25 N         135.2892  141.4888  155.0795 N.pl3   1  UNL1       -0.3093
     26 H         135.0084  142.0459  154.3179 H       1  UNL1        0.1487
     27 C         133.0454  138.1941  158.5423 C.3     1  UNL1        0.1537
     28 N         133.2323  139.2323  157.4759 N.ar    1  UNL1       -0.2476
     29 N         134.5456  139.7078  156.9289 N.ar    1  UNL1       -0.1544
     30 C         134.2636  140.7467  155.8842 C.ar    1  UNL1        0.1500
     31 C         132.7762  140.9132  155.7856 C.ar    1  UNL1        0.0503
     32 C         131.9198  141.7962  154.9272 C.ar    1  UNL1        0.0082
     33 C         130.4260  141.7432  155.0525 C.ar    1  UNL1        0.0716
     34 C         129.7886  140.8072  156.0362 C.ar    1  UNL1        0.0054
     35 C         130.6450  139.9243  156.8946 C.ar    1  UNL1        0.0188
     36 C         132.1388  139.9773  156.7693 C.ar    1  UNL1        0.0807
     37 C         129.5696  142.6262  154.1940 C.3     1  UNL1        0.4186
     38 F         128.7131  143.5091  153.3356 F       1  UNL1       -0.1659
     39 F         129.0637  141.4206  153.4587 F       1  UNL1       -0.1659
     40 F         130.0754  143.8318  154.9293 F       1  UNL1       -0.1659
@<TRIPOS>BOND
     1    27    28    1
     2    28    29   ar
     3    29    30   ar
     4    30    25    1
     5    25    24    1
     6    24     1    1
     7     1     2    2
     8     1     3   am
     9     3     5    1
    10     5     6    1
    11     6     7    1
    12     9     7    1
    13     9    10    1
    14    10    11    1
    15    11    12    1
    16    12    15    1
    17    15    16   ar
    18    16    17   ar
    19    17    18   ar
    20    18    19   ar
    21    19    20   ar
    22    19    21    1
    23    21    22    1
    24    22    23    1
    25    12    13    1
    26    13    14    1
    27     7     8    1
    28    30    31   ar
    29    31    32   ar
    30    32    33   ar
    31    33    37    1
    32    37    38    1
    33    37    39    1
    34    37    40    1
    35    33    34   ar
    36    34    35   ar
    37    35    36   ar
    38    36    28   ar
    39     8     5    1
    40    36    31   ar
    41    14     9    1
    42    20    15   ar
    43    23    18    1
    44    25    26    1
    45     3     4    1
@<TRIPOS>MOLECULE
*****
 40 45 0 0 0
SMALL
GASTEIGER

@<TRIPOS>ATOM
      1 C         141.4370  143.1555  158.9588 C.2     1  UNL1        0.2425
      2 O         142.8260  142.9264  158.4408 O.2     1  UNL1       -0.2733
      3 N         140.4156  142.0601  158.8764 N.am    1  UNL1       -0.3018
      4 H         139.5040  142.2105  159.2164 H       1  UNL1        0.1495
      5 C         140.7832  140.7356  158.2761 C.3     1  UNL1        0.1035
      6 C         141.3155  140.2840  156.9483 C.3     1  UNL1        0.0933
      7 N         141.3031  138.8624  157.4269 N.3     1  UNL1       -0.2711
      8 C         140.7708  139.3141  158.7546 C.3     1  UNL1        0.0933
      9 C         141.6707  137.5379  156.8265 C.3     1  UNL1        0.0576
     10 C         140.7285  136.8566  155.8789 C.3     1  UNL1        0.0163
     11 C         141.0960  135.5321  155.2785 C.3     1  UNL1        0.0057
     12 C         142.4058  134.8888  155.6258 C.3     1  UNL1        0.0225
     13 C         143.3481  135.5700  156.5734 C.3     1  UNL1        0.0057
     14 C         142.9805  136.8946  157.1738 C.3     1  UNL1        0.0163
     15 C         142.7733  133.5643  155.0253 C.ar    1  UNL1       -0.0193
     16 C         142.2137  133.1639  153.6924 C.ar    1  UNL1       -0.0010
     17 C         142.5812  131.8394  153.0918 C.ar    1  UNL1        0.0399
     18 C         143.5081  130.9152  153.8242 C.ar    1  UNL1        0.1764
     19 C         144.0677  131.3154  155.1572 C.ar    1  UNL1        0.1761
     20 C         143.7003  132.6400  155.7577 C.ar    1  UNL1        0.0359
     21 O         144.9513  130.2043  155.6415 O.3     1  UNL1       -0.4346
     22 C         144.9379  129.1173  154.6079 C.3     1  UNL1        0.4294
     23 O         144.0459  129.5566  153.4847 O.3     1  UNL1       -0.4346
     24 C         141.0694  144.4801  159.5591 C.3     1  UNL1        0.1747
     25 N         141.9836  145.1323  160.5537 N.pl3   1  UNL1       -0.3093
     26 H         142.2796  146.0610  160.4151 H       1  UNL1        0.1487
     27 C         144.9851  142.3429  163.8839 C.3     1  UNL1        0.1537
     28 N         143.8262  143.0875  163.2902 N.ar    1  UNL1       -0.2476
     29 N         143.7983  143.7457  161.9427 N.ar    1  UNL1       -0.1544
     30 C         142.4466  144.3696  161.7595 C.ar    1  UNL1        0.1500
     31 C         141.6391  144.0969  162.9939 C.ar    1  UNL1        0.0503
     32 C         140.2375  144.4678  163.3786 C.ar    1  UNL1        0.0082
     33 C         139.6887  144.0463  164.7094 C.ar    1  UNL1        0.0716
     34 C         140.5413  143.2539  165.6554 C.ar    1  UNL1        0.0054
     35 C         141.9429  142.8830  165.2707 C.ar    1  UNL1        0.0188
     36 C         142.4917  143.3045  163.9399 C.ar    1  UNL1        0.0807
     37 C         138.2870  144.4172  165.0942 C.3     1  UNL1        0.4186
     38 F         136.8855  144.7881  165.4790 F       1  UNL1       -0.1659
     39 F         138.8214  145.3665  166.1253 F       1  UNL1       -0.1659
     40 F         137.7527  143.4678  164.0631 F       1  UNL1       -0.1659
@<TRIPOS>BOND
     1    27    28    1
     2    28    29   ar
     3    29    30   ar
     4    30    25    1
     5    25    24    1
     6    24     1    1
     7     1     2    2
     8     1     3   am
     9     3     5    1
    10     5     6    1
    11     6     7    1
    12     9     7    1
    13     9    10    1
    14    10    11    1
    15    11    12    1
    16    12    15    1
    17    15    16   ar
    18    16    17   ar
    19    17    18   ar
    20    18    19   ar
    21    19    20   ar
    22    19    21    1
    23    21    22    1
    24    22    23    1
    25    12    13    1
    26    13    14    1
    27     7     8    1
    28    30    31   ar
    29    31    32   ar
    30    32    33   ar
    31    33    37    1
    32    37    38    1
    33    37    39    1
    34    37    40    1
    35    33    34   ar
    36    34    35   ar
    37    35    36   ar
    38    36    28   ar
    39     8     5    1
    40    36    31   ar
    41    14     9    1
    42    20    15   ar
    43    23    18    1
    44    25    26    1
    45     3     4    1
@<TRIPOS>MOLECULE
*****
 40 45 0 0 0
SMALL
GASTEIGER

@<TRIPOS>ATOM
      1 C         141.9774  137.4014  156.6764 C.2     1  UNL1        0.2425
      2 O         140.5439  137.4549  157.1148 O.2     1  UNL1       -0.2733
      3 N         143.0738  137.6846  157.6601 N.am    1  UNL1       -0.3018
      4 H         144.0146  137.6494  157.3723 H       1  UNL1        0.1495
      5 C         142.7366  138.0212  159.0825 C.3     1  UNL1        0.1035
      6 C         143.0749  137.4334  160.4204 C.3     1  UNL1        0.0933
      7 N         142.2597  138.4973  161.0940 N.3     1  UNL1       -0.2711
      8 C         141.9214  139.0851  159.7560 C.3     1  UNL1        0.0933
      9 C         141.9225  138.8339  162.5163 C.3     1  UNL1        0.0576
     10 C         140.8105  138.1094  163.2151 C.3     1  UNL1        0.0163
     11 C         140.4733  138.4460  164.6373 C.3     1  UNL1        0.0057
     12 C         141.2481  139.5073  165.3609 C.3     1  UNL1        0.0225
     13 C         142.3602  140.2318  164.6621 C.3     1  UNL1        0.0057
     14 C         142.6974  139.8952  163.2397 C.3     1  UNL1        0.0163
     15 C         140.9109  139.8438  166.7832 C.ar    1  UNL1       -0.0193
     16 C         139.4984  139.7111  167.2706 C.ar    1  UNL1       -0.0010
     17 C         139.1610  140.0477  168.6929 C.ar    1  UNL1        0.0399
     18 C         140.2361  140.5169  169.6277 C.ar    1  UNL1        0.1764
     19 C         141.6485  140.6496  169.1404 C.ar    1  UNL1        0.1761
     20 C         141.9859  140.3131  167.7181 C.ar    1  UNL1        0.0359
     21 O         142.4899  141.1331  170.2841 O.3     1  UNL1       -0.4346
     22 C         141.5976  141.2992  171.4784 C.3     1  UNL1        0.4294
     23 O         140.2046  140.9184  171.0727 O.3     1  UNL1       -0.4346
     24 C         142.3146  137.0648  155.2541 C.3     1  UNL1        0.1747
     25 N         142.1629  135.6564  154.7605 N.pl3   1  UNL1       -0.3093
     26 H         141.6849  135.4787  153.9183 H       1  UNL1        0.1487
     27 C         145.0686  132.8902  158.1935 C.3     1  UNL1        0.1537
     28 N         144.0750  133.2473  157.1280 N.ar    1  UNL1       -0.2476
     29 N         143.8039  134.6254  156.6015 N.ar    1  UNL1       -0.1544
     30 C         142.7394  134.5187  155.5500 C.ar    1  UNL1        0.1500
     31 C         142.3527  133.0747  155.4267 C.ar    1  UNL1        0.0503
     32 C         141.3556  132.3738  154.5524 C.ar    1  UNL1        0.0082
     33 C         141.1839  130.8871  154.6534 C.ar    1  UNL1        0.0716
     34 C         142.0094  130.1013  155.6286 C.ar    1  UNL1        0.0054
     35 C         143.0065  130.8022  156.5029 C.ar    1  UNL1        0.0188
     36 C         143.1782  132.2889  156.4020 C.ar    1  UNL1        0.0807
     37 C         140.1867  130.1862  153.7790 C.3     1  UNL1        0.4186
     38 F         139.1897  129.4852  152.9047 F       1  UNL1       -0.1659
     39 F         141.0869  130.3822  152.5953 F       1  UNL1       -0.1659
     40 F         139.2866  129.9901  154.9628 F       1  UNL1       -0.1659
@<TRIPOS>BOND
     1    27    28    1
     2    28    29   ar
     3    29    30   ar
     4    30    25    1
     5    25    24    1
     6    24     1    1
     7     1     2    2
     8     1     3   am
     9     3     5    1
    10     5     6    1
    11     6     7    1
    12     9     7    1
    13     9    10    1
    14    10    11    1
    15    11    12    1
    16    12    15    1
    17    15    16   ar
    18    16    17   ar
    19    17    18   ar
    20    18    19   ar
    21    19    20   ar
    22    19    21    1
    23    21    22    1
    24    22    23    1
    25    12    13    1
    26    13    14    1
    27     7     8    1
    28    30    31   ar
    29    31    32   ar
    30    32    33   ar
    31    33    37    1
    32    37    38    1
    33    37    39    1
    34    37    40    1
    35    33    34   ar
    36    34    35   ar
    37    35    36   ar
    38    36    28   ar
    39     8     5    1
    40    36    31   ar
    41    14     9    1
    42    20    15   ar
    43    23    18    1
    44    25    26    1
    45     3     4    1
@<TRIPOS>MOLECULE
*****
 40 45 0 0 0
SMALL
GASTEIGER

@<TRIPOS>ATOM
      1 C         140.9748  144.3016  159.2754 C.2     1  UNL1        0.2425
      2 O         142.4262  143.9585  159.1150 O.2     1  UNL1       -0.2733
      3 N         139.9222  143.2930  158.9221 N.am    1  UNL1       -0.3018
      4 H         138.9696  143.5182  159.0273 H       1  UNL1        0.1495
      5 C         140.3211  141.9414  158.4083 C.3     1  UNL1        0.1035
      6 C         140.3086  140.5487  158.9657 C.3     1  UNL1        0.0933
      7 N         140.8852  140.0297  157.6819 N.3     1  UNL1       -0.2711
      8 C         140.8977  141.4223  157.1246 C.3     1  UNL1        0.0933
      9 C         141.2841  138.6781  157.1682 C.3     1  UNL1        0.0576
     10 C         140.3479  137.9040  156.2882 C.3     1  UNL1        0.0163
     11 C         140.7468  136.5524  155.7745 C.3     1  UNL1        0.0057
     12 C         142.0818  135.9747  156.1407 C.3     1  UNL1        0.0225
     13 C         143.0180  136.7489  157.0207 C.3     1  UNL1        0.0057
     14 C         142.6191  138.1005  157.5344 C.3     1  UNL1        0.0163
     15 C         142.4806  134.6231  155.6270 C.ar    1  UNL1       -0.0193
     16 C         141.8153  134.0583  154.4069 C.ar    1  UNL1       -0.0010
     17 C         142.2140  132.7067  153.8930 C.ar    1  UNL1        0.0399
     18 C         143.2780  131.9198  154.5992 C.ar    1  UNL1        0.1764
     19 C         143.9433  132.4845  155.8192 C.ar    1  UNL1        0.1761
     20 C         143.5446  133.8362  156.3331 C.ar    1  UNL1        0.0359
     21 O         144.9520  131.4848  156.3018 O.3     1  UNL1       -0.4346
     22 C         144.9101  130.3021  155.3801 C.3     1  UNL1        0.4294
     23 O         143.8755  130.5710  154.3278 O.3     1  UNL1       -0.4346
     24 C         140.5759  145.6532  159.7891 C.3     1  UNL1        0.1747
     25 N         140.1704  145.8207  161.2236 N.pl3   1  UNL1       -0.3093
     26 H         140.1781  146.7145  161.6362 H       1  UNL1        0.1487
     27 C         137.3522  141.7782  163.1201 C.3     1  UNL1        0.1537
     28 N         138.4577  142.7682  162.9010 N.ar    1  UNL1       -0.2476
     29 N         138.4509  143.8917  161.9072 N.ar    1  UNL1       -0.1544
     30 C         139.7530  144.6263  162.0293 C.ar    1  UNL1        0.1500
     31 C         140.5645  143.9568  163.0986 C.ar    1  UNL1        0.0503
     32 C         141.9289  144.2445  163.6512 C.ar    1  UNL1        0.0082
     33 C         142.4928  143.3839  164.7426 C.ar    1  UNL1        0.0716
     34 C         141.6922  142.2355  165.2814 C.ar    1  UNL1        0.0054
     35 C         140.3277  141.9478  164.7288 C.ar    1  UNL1        0.0188
     36 C         139.7639  142.8084  163.6373 C.ar    1  UNL1        0.0807
     37 C         143.8573  143.6716  165.2954 C.3     1  UNL1        0.4186
     38 F         145.2217  143.9592  165.8481 F       1  UNL1       -0.1659
     39 F         143.7205  142.5118  166.2367 F       1  UNL1       -0.1659
     40 F         143.9941  144.8314  164.3541 F       1  UNL1       -0.1659
@<TRIPOS>BOND
     1    27    28    1
     2    28    29   ar
     3    29    30   ar
     4    30    25    1
     5    25    24    1
     6    24     1    1
     7     1     2    2
     8     1     3   am
     9     3     5    1
    10     5     6    1
    11     6     7    1
    12     9     7    1
    13     9    10    1
    14    10    11    1
    15    11    12    1
    16    12    15    1
    17    15    16   ar
    18    16    17   ar
    19    17    18   ar
    20    18    19   ar
    21    19    20   ar
    22    19    21    1
    23    21    22    1
    24    22    23    1
    25    12    13    1
    26    13    14    1
    27     7     8    1
    28    30    31   ar
    29    31    32   ar
    30    32    33   ar
    31    33    37    1
    32    37    38    1
    33    37    39    1
    34    37    40    1
    35    33    34   ar
    36    34    35   ar
    37    35    36   ar
    38    36    28   ar
    39     8     5    1
    40    36    31   ar
    41    14     9    1
    42    20    15   ar
    43    23    18    1
    44    25    26    1
    45     3     4    1
@<TRIPOS>MOLECULE
*****
 40 45 0 0 0
SMALL
GASTEIGER

@<TRIPOS>ATOM
      1 C         142.8817  139.6254  156.2364 C.2     1  UNL1        0.2425
      2 O         141.7200  140.5067  156.5879 O.2     1  UNL1       -0.2733
      3 N         143.6298  138.9036  157.3178 N.am    1  UNL1       -0.3018
      4 H         144.3923  138.3252  157.0871 H       1  UNL1        0.1495
      5 C         143.2160  139.0633  158.7508 C.3     1  UNL1        0.1035
      6 C         143.5246  140.0467  159.8406 C.3     1  UNL1        0.0933
      7 N         142.6309  139.2891  160.7773 N.3     1  UNL1       -0.2711
      8 C         142.3224  138.3057  159.6875 C.3     1  UNL1        0.0933
      9 C         142.2172  139.4487  162.2102 C.3     1  UNL1        0.0576
     10 C         140.9941  140.2465  162.5533 C.3     1  UNL1        0.0163
     11 C         140.5804  140.4062  163.9862 C.3     1  UNL1        0.0057
     12 C         141.3896  139.7680  165.0761 C.3     1  UNL1        0.0225
     13 C         142.6126  138.9702  164.7331 C.3     1  UNL1        0.0057
     14 C         143.0264  138.8105  163.3001 C.3     1  UNL1        0.0163
     15 C         140.9758  139.9277  166.5090 C.ar    1  UNL1       -0.0193
     16 C         139.5439  139.7181  166.9039 C.ar    1  UNL1       -0.0010
     17 C         139.1299  139.8778  168.3367 C.ar    1  UNL1        0.0399
     18 C         140.1478  140.2470  169.3747 C.ar    1  UNL1        0.1764
     19 C         141.5797  140.4565  168.9799 C.ar    1  UNL1        0.1761
     20 C         141.9936  140.2969  167.5470 C.ar    1  UNL1        0.0359
     21 O         142.3537  140.8117  170.2147 O.3     1  UNL1       -0.4346
     22 C         141.4003  140.8217  171.3726 C.3     1  UNL1        0.4294
     23 O         140.0369  140.4727  170.8536 O.3     1  UNL1       -0.4346
     24 C         143.2955  139.4657  154.8035 C.3     1  UNL1        0.1747
     25 N         143.8279  138.1497  154.3187 N.pl3   1  UNL1       -0.3093
     26 H         144.7960  138.0287  154.1872 H       1  UNL1        0.1487
     27 C         139.9342  135.2634  152.2237 C.3     1  UNL1        0.1537
     28 N         141.0954  135.6916  153.0712 N.ar    1  UNL1       -0.2476
     29 N         141.7825  137.0239  153.0172 N.ar    1  UNL1       -0.1544
     30 C         142.8851  137.0183  154.0341 C.ar    1  UNL1        0.1500
     31 C         142.8795  135.6825  154.7166 C.ar    1  UNL1        0.0503
     32 C         143.7387  135.1069  155.8031 C.ar    1  UNL1        0.0082
     33 C         143.4917  133.7114  156.2944 C.ar    1  UNL1        0.0716
     34 C         142.3856  132.8915  155.6993 C.ar    1  UNL1        0.0054
     35 C         141.5265  133.4670  154.6128 C.ar    1  UNL1        0.0188
     36 C         141.7734  134.8626  154.1215 C.ar    1  UNL1        0.0807
     37 C         144.3509  133.1357  157.3809 C.3     1  UNL1        0.4186
     38 F         145.2101  132.5601  158.4674 F       1  UNL1       -0.1659
     39 F         145.0646  132.2900  156.3684 F       1  UNL1       -0.1659
     40 F         143.6373  133.9815  158.3935 F       1  UNL1       -0.1659
@<TRIPOS>BOND
     1    27    28    1
     2    28    29   ar
     3    29    30   ar
     4    30    25    1
     5    25    24    1
     6    24     1    1
     7     1     2    2
     8     1     3   am
     9     3     5    1
    10     5     6    1
    11     6     7    1
    12     9     7    1
    13     9    10    1
    14    10    11    1
    15    11    12    1
    16    12    15    1
    17    15    16   ar
    18    16    17   ar
    19    17    18   ar
    20    18    19   ar
    21    19    20   ar
    22    19    21    1
    23    21    22    1
    24    22    23    1
    25    12    13    1
    26    13    14    1
    27     7     8    1
    28    30    31   ar
    29    31    32   ar
    30    32    33   ar
    31    33    37    1
    32    37    38    1
    33    37    39    1
    34    37    40    1
    35    33    34   ar
    36    34    35   ar
    37    35    36   ar
    38    36    28   ar
    39     8     5    1
    40    36    31   ar
    41    14     9    1
    42    20    15   ar
    43    23    18    1
    44    25    26    1
    45     3     4    1
@<TRIPOS>MOLECULE
*****
 40 45 0 0 0
SMALL
GASTEIGER

@<TRIPOS>ATOM
      1 C         138.8880  138.9987  162.7150 C.2     1  UNL1        0.2425
      2 O         138.3435  140.2842  163.2634 O.2     1  UNL1       -0.2733
      3 N         139.4525  138.9551  161.3259 N.am    1  UNL1       -0.3018
      4 H         139.8099  138.1114  160.9660 H       1  UNL1        0.1495
      5 C         139.4723  140.1973  160.4853 C.3     1  UNL1        0.1035
      6 C         138.4382  140.9960  159.7484 C.3     1  UNL1        0.0933
      7 N         139.5003  141.9539  159.2964 N.3     1  UNL1       -0.2711
      8 C         140.5343  141.1553  160.0332 C.3     1  UNL1        0.0933
      9 C         139.5201  143.1961  158.4557 C.3     1  UNL1        0.0576
     10 C         139.0299  143.1507  157.0388 C.3     1  UNL1        0.0163
     11 C         139.0497  144.3927  156.1982 C.3     1  UNL1        0.0057
     12 C         139.5598  145.6804  156.7744 C.3     1  UNL1        0.0225
     13 C         140.0500  145.7258  158.1913 C.3     1  UNL1        0.0057
     14 C         140.0302  144.4836  159.0319 C.3     1  UNL1        0.0163
     15 C         139.5796  146.9224  155.9337 C.ar    1  UNL1       -0.0193
     16 C         140.3287  146.9365  154.6341 C.ar    1  UNL1       -0.0010
     17 C         140.3485  148.1785  153.7932 C.ar    1  UNL1        0.0399
     18 C         139.6194  149.4064  154.2520 C.ar    1  UNL1        0.1764
     19 C         138.8703  149.3924  155.5515 C.ar    1  UNL1        0.1761
     20 C         138.8505  148.1504  156.3923 C.ar    1  UNL1        0.0359
     21 O         138.2494  150.7443  155.7432 O.3     1  UNL1       -0.4346
     22 C         138.6147  151.5939  154.5622 C.3     1  UNL1        0.4294
     23 O         139.4613  150.7671  153.6405 O.3     1  UNL1       -0.4346
     24 C         138.8682  137.7565  163.5556 C.3     1  UNL1        0.1747
     25 N         139.6349  137.7106  164.8442 N.pl3   1  UNL1       -0.3093
     26 H         139.3158  137.1488  165.5871 H       1  UNL1        0.1487
     27 C         144.4804  139.6641  164.0792 C.3     1  UNL1        0.1537
     28 N         143.1148  139.4186  164.6492 N.ar    1  UNL1       -0.2476
     29 N         142.1085  138.4327  164.1339 N.ar    1  UNL1       -0.1544
     30 C         140.8876  138.5206  165.0008 C.ar    1  UNL1        0.1500
     31 C         141.1392  139.5608  166.0519 C.ar    1  UNL1        0.0503
     32 C         140.2928  140.0743  167.1787 C.ar    1  UNL1        0.0082
     33 C         140.8229  141.1428  168.0883 C.ar    1  UNL1        0.0716
     34 C         142.1994  141.6978  167.8709 C.ar    1  UNL1        0.0054
     35 C         143.0459  141.1842  166.7441 C.ar    1  UNL1        0.0188
     36 C         142.5158  140.1158  165.8346 C.ar    1  UNL1        0.0807
     37 C         139.9765  141.6564  169.2152 C.3     1  UNL1        0.4186
     38 F         139.1301  142.1699  170.3420 F       1  UNL1       -0.1659
     39 F         139.6856  140.2472  169.6388 F       1  UNL1       -0.1659
     40 F         140.2674  143.0656  168.7915 F       1  UNL1       -0.1659
@<TRIPOS>BOND
     1    27    28    1
     2    28    29   ar
     3    29    30   ar
     4    30    25    1
     5    25    24    1
     6    24     1    1
     7     1     2    2
     8     1     3   am
     9     3     5    1
    10     5     6    1
    11     6     7    1
    12     9     7    1
    13     9    10    1
    14    10    11    1
    15    11    12    1
    16    12    15    1
    17    15    16   ar
    18    16    17   ar
    19    17    18   ar
    20    18    19   ar
    21    19    20   ar
    22    19    21    1
    23    21    22    1
    24    22    23    1
    25    12    13    1
    26    13    14    1
    27     7     8    1
    28    30    31   ar
    29    31    32   ar
    30    32    33   ar
    31    33    37    1
    32    37    38    1
    33    37    39    1
    34    37    40    1
    35    33    34   ar
    36    34    35   ar
    37    35    36   ar
    38    36    28   ar
    39     8     5    1
    40    36    31   ar
    41    14     9    1
    42    20    15   ar
    43    23    18    1
    44    25    26    1
    45     3     4    1
