@<TRIPOS>MOLECULE
*****
 34 37 0 0 0
SMALL
GASTEIGER

@<TRIPOS>ATOM
      1 C         141.8438  145.0788  163.9555 C.3     1  UNL1        0.0033
      2 C         140.7779  144.0895  163.5880 C.3     1  UNL1        0.0080
      3 C         140.4272  142.9789  164.5334 C.3     1  UNL1        0.0177
      4 C         139.3613  141.9896  164.1659 C.3     1  UNL1        0.0721
      5 N         138.6461  142.1108  162.8530 N.3     1  UNL1       -0.2716
      6 C         138.9967  143.2213  161.9076 C.3     1  UNL1        0.0776
      7 C         140.0626  144.2107  162.2751 C.3     1  UNL1        0.0525
      8 C         140.4133  145.3212  161.3297 C.2     1  UNL1        0.0513
      9 O         139.5752  146.5645  161.2895 O.co2   1  UNL1       -0.5491
     10 O         141.6019  145.1883  160.4245 O.co2   1  UNL1       -0.5491
     11 C         137.5802  141.1215  162.4854 C.3     1  UNL1        0.0843
     12 C         137.8448  140.0925  161.4265 C.3     1  UNL1        0.0824
     13 S         137.8880  138.6376  161.7886 S.3     1  UNL1       -0.0756
     14 C         138.9786  138.1180  162.6778 C.ar    1  UNL1        0.1712
     15 C         138.9651  138.1113  164.1778 C.ar    1  UNL1        0.0473
     16 C         140.2522  137.5031  164.6502 C.ar    1  UNL1        0.0444
     17 C         141.0613  137.1338  163.4422 C.ar    1  UNL1        0.1804
     18 O         140.2741  137.5139  162.2232 O.2     1  UNL1       -0.4443
     19 C         143.2826  144.7759  163.6588 C.3     1  UNL1        0.0338
     20 C         144.0649  143.8811  164.5739 C.3     1  UNL1        0.1328
     21 O         144.7950  144.4629  165.7480 O.3     1  UNL1       -0.3801
     22 H         144.6586  145.4231  165.7701 H       1  UNL1        0.2108
     23 C         142.5740  140.9964  167.6893 C.ar    1  UNL1        0.1388
     24 C         142.6262  139.5199  167.4304 C.ar    1  UNL1        0.0384
     25 C         143.1754  139.0049  166.1330 C.ar    1  UNL1        0.0222
     26 C         143.6723  139.9664  165.0945 C.ar    1  UNL1        0.0813
     27 N         144.2214  139.4514  163.7971 N.ar    1  UNL1       -0.2439
     28 C         144.7184  140.4130  162.7587 C.ar    1  UNL1        0.0986
     29 C         144.6662  141.8896  163.0176 C.ar    1  UNL1        0.0187
     30 C         144.1171  142.4046  164.3150 C.ar    1  UNL1        0.0073
     31 C         143.6201  141.4430  165.3535 C.ar    1  UNL1        0.0190
     32 C         143.0710  141.9579  166.6509 C.ar    1  UNL1        0.0382
     33 C         141.2760  140.5895  169.9028 C.3     1  UNL1        0.2525
     34 O         142.0249  141.5114  168.9867 O.3     1  UNL1       -0.4714
@<TRIPOS>UNITY_ATOM_ATTR
9 1
charge -1
@<TRIPOS>BOND
     1    33    34    1
     2    34    23    1
     3    23    24   ar
     4    24    25   ar
     5    25    26   ar
     6    26    27   ar
     7    27    28   ar
     8    28    29   ar
     9    29    30   ar
    10    30    20    1
    11    20    21    1
    12    20    19    1
    13    19     1    1
    14     2     1    1
    15     2     3    1
    16     3     4    1
    17     4     5    1
    18     5    11    1
    19    11    12    1
    20    12    13    1
    21    13    14    1
    22    14    15   ar
    23    15    16   ar
    24    16    17   ar
    25    17    18   ar
    26     5     6    1
    27     6     7    1
    28     7     8    1
    29     8     9   ar
    30     8    10   ar
    31    30    31   ar
    32    31    32   ar
    33    32    23   ar
    34    31    26   ar
    35     7     2    1
    36    18    14   ar
    37    21    22    1
@<TRIPOS>MOLECULE
*****
 34 37 0 0 0
SMALL
GASTEIGER

@<TRIPOS>ATOM
      1 C         140.7923  139.5058  167.3350 C.3     1  UNL1        0.0033
      2 C         141.8362  139.8091  166.3014 C.3     1  UNL1        0.0080
      3 C         142.1512  138.8018  165.2354 C.3     1  UNL1        0.0177
      4 C         143.1950  139.1052  164.2019 C.3     1  UNL1        0.0721
      5 N         143.9239  140.4158  164.2342 N.3     1  UNL1       -0.2716
      6 C         143.6089  141.4231  165.3000 C.3     1  UNL1        0.0776
      7 C         142.5650  141.1197  166.3337 C.3     1  UNL1        0.0525
      8 C         142.2500  142.1270  167.3996 C.2     1  UNL1        0.0513
      9 O         140.9993  142.9499  167.3077 O.co2   1  UNL1       -0.5491
     10 O         143.1858  142.3114  168.5574 O.co2   1  UNL1       -0.5491
     11 C         144.9677  140.7192  163.2006 C.3     1  UNL1        0.0843
     12 C         145.3058  142.1431  162.8715 C.3     1  UNL1        0.0824
     13 S         144.4574  142.9103  161.9012 S.3     1  UNL1       -0.0756
     14 C         143.3585  143.7984  162.4048 C.ar    1  UNL1        0.1712
     15 C         143.4355  144.7078  163.5952 C.ar    1  UNL1        0.0473
     16 C         142.1142  145.4044  163.7326 C.ar    1  UNL1        0.0444
     17 C         141.2205  144.9257  162.6270 C.ar    1  UNL1        0.1804
     18 O         141.9896  143.9330  161.8063 O.2     1  UNL1       -0.4443
     19 C         139.3917  140.0125  167.1576 C.3     1  UNL1        0.0338
     20 C         138.3994  139.2128  166.3665 C.3     1  UNL1        0.1328
     21 O         137.2937  138.4826  167.0695 O.3     1  UNL1       -0.3801
     22 H         137.3648  138.6311  168.0254 H       1  UNL1        0.2108
     23 C         137.8766  142.9368  163.8950 C.ar    1  UNL1        0.1388
     24 C         137.9900  142.8674  162.4009 C.ar    1  UNL1        0.0384
     25 C         138.2775  141.5567  161.7306 C.ar    1  UNL1        0.0222
     26 C         138.4518  140.3153  162.5544 C.ar    1  UNL1        0.0813
     27 N         138.7394  139.0046  161.8842 N.ar    1  UNL1       -0.2439
     28 C         138.9136  137.7633  162.7080 C.ar    1  UNL1        0.0986
     29 C         138.8003  137.8326  164.2021 C.ar    1  UNL1        0.0187
     30 C         138.5127  139.1434  164.8724 C.ar    1  UNL1        0.0073
     31 C         138.3385  140.3848  164.0485 C.ar    1  UNL1        0.0190
     32 C         138.0509  141.6955  164.7188 C.ar    1  UNL1        0.0382
     33 C         138.6364  144.8992  165.4187 C.3     1  UNL1        0.2525
     34 O         137.5890  144.2476  164.5652 O.3     1  UNL1       -0.4714
@<TRIPOS>UNITY_ATOM_ATTR
9 1
charge -1
@<TRIPOS>BOND
     1    33    34    1
     2    34    23    1
     3    23    24   ar
     4    24    25   ar
     5    25    26   ar
     6    26    27   ar
     7    27    28   ar
     8    28    29   ar
     9    29    30   ar
    10    30    20    1
    11    20    21    1
    12    20    19    1
    13    19     1    1
    14     2     1    1
    15     2     3    1
    16     3     4    1
    17     4     5    1
    18     5    11    1
    19    11    12    1
    20    12    13    1
    21    13    14    1
    22    14    15   ar
    23    15    16   ar
    24    16    17   ar
    25    17    18   ar
    26     5     6    1
    27     6     7    1
    28     7     8    1
    29     8     9   ar
    30     8    10   ar
    31    30    31   ar
    32    31    32   ar
    33    32    23   ar
    34    31    26   ar
    35     7     2    1
    36    18    14   ar
    37    21    22    1
@<TRIPOS>MOLECULE
*****
 34 37 0 0 0
SMALL
GASTEIGER

@<TRIPOS>ATOM
      1 C         143.3560  142.2491  167.1471 C.3     1  UNL1        0.0033
      2 C         143.5255  141.6711  165.7735 C.3     1  UNL1        0.0080
      3 C         143.2051  140.2273  165.5225 C.3     1  UNL1        0.0177
      4 C         143.3747  139.6493  164.1488 C.3     1  UNL1        0.0721
      5 N         143.8647  140.5149  163.0260 N.3     1  UNL1       -0.2716
      6 C         144.1851  141.9586  163.2770 C.3     1  UNL1        0.0776
      7 C         144.0155  142.5368  164.6507 C.3     1  UNL1        0.0525
      8 C         144.3359  143.9805  164.9017 C.2     1  UNL1        0.0513
      9 O         143.7002  145.0470  164.0601 O.co2   1  UNL1       -0.5491
     10 O         145.2920  144.3576  165.9942 O.co2   1  UNL1       -0.5491
     11 C         144.0343  139.9369  161.6523 C.3     1  UNL1        0.0843
     12 C         143.9736  138.4517  161.4508 C.3     1  UNL1        0.0824
     13 S         142.7727  137.8315  160.8005 S.3     1  UNL1       -0.0756
     14 C         141.4240  137.9522  161.4460 C.ar    1  UNL1        0.1712
     15 C         141.0042  137.3141  162.7370 C.ar    1  UNL1        0.0473
     16 C         139.5791  137.6997  163.0027 C.ar    1  UNL1        0.0444
     17 C         139.1182  138.5760  161.8758 C.ar    1  UNL1        0.1804
     18 O         140.2585  138.7321  160.9137 O.2     1  UNL1       -0.4443
     19 C         142.3804  141.6324  168.1051 C.3     1  UNL1        0.0338
     20 C         140.9326  142.0219  168.0559 C.3     1  UNL1        0.1328
     21 O         140.4409  143.1849  168.8657 O.3     1  UNL1       -0.3801
     22 H         141.1811  143.5707  169.3599 H       1  UNL1        0.2108
     23 C         139.4783  143.7690  164.1723 C.ar    1  UNL1        0.1388
     24 C         138.5223  142.9956  163.3134 C.ar    1  UNL1        0.0384
     25 C         138.0511  141.6397  163.7489 C.ar    1  UNL1        0.0222
     26 C         138.5358  141.0574  165.0434 C.ar    1  UNL1        0.0813
     27 N         138.0646  139.7016  165.4790 N.ar    1  UNL1       -0.2439
     28 C         138.5494  139.1192  166.7735 C.ar    1  UNL1        0.0986
     29 C         139.5054  139.8926  167.6325 C.ar    1  UNL1        0.0187
     30 C         139.9766  141.2485  167.1970 C.ar    1  UNL1        0.0073
     31 C         139.4918  141.8308  165.9024 C.ar    1  UNL1        0.0190
     32 C         139.9630  143.1866  165.4668 C.ar    1  UNL1        0.0382
     33 C         139.9399  145.4906  162.2821 C.3     1  UNL1        0.2525
     34 O         139.9495  145.1248  163.7367 O.3     1  UNL1       -0.4714
@<TRIPOS>UNITY_ATOM_ATTR
9 1
charge -1
@<TRIPOS>BOND
     1    33    34    1
     2    34    23    1
     3    23    24   ar
     4    24    25   ar
     5    25    26   ar
     6    26    27   ar
     7    27    28   ar
     8    28    29   ar
     9    29    30   ar
    10    30    20    1
    11    20    21    1
    12    20    19    1
    13    19     1    1
    14     2     1    1
    15     2     3    1
    16     3     4    1
    17     4     5    1
    18     5    11    1
    19    11    12    1
    20    12    13    1
    21    13    14    1
    22    14    15   ar
    23    15    16   ar
    24    16    17   ar
    25    17    18   ar
    26     5     6    1
    27     6     7    1
    28     7     8    1
    29     8     9   ar
    30     8    10   ar
    31    30    31   ar
    32    31    32   ar
    33    32    23   ar
    34    31    26   ar
    35     7     2    1
    36    18    14   ar
    37    21    22    1
@<TRIPOS>MOLECULE
*****
 34 37 0 0 0
SMALL
GASTEIGER

@<TRIPOS>ATOM
      1 C         137.7267  143.3384  162.9904 C.3     1  UNL1        0.0033
      2 C         138.2361  141.9298  162.9113 C.3     1  UNL1        0.0080
      3 C         137.9547  140.9668  164.0265 C.3     1  UNL1        0.0177
      4 C         138.4641  139.5582  163.9475 C.3     1  UNL1        0.0721
      5 N         139.2549  139.1125  162.7534 N.3     1  UNL1       -0.2716
      6 C         139.5362  140.0754  161.6382 C.3     1  UNL1        0.0776
      7 C         139.0268  141.4841  161.7172 C.3     1  UNL1        0.0525
      8 C         139.3082  142.4470  160.6020 C.2     1  UNL1        0.0513
      9 O         138.2142  142.8344  159.6518 O.co2   1  UNL1       -0.5491
     10 O         140.6836  143.0225  160.4371 O.co2   1  UNL1       -0.5491
     11 C         139.7643  137.7039  162.6743 C.3     1  UNL1        0.0843
     12 C         141.2012  137.4073  162.9863 C.3     1  UNL1        0.0824
     13 S         141.8883  138.1252  164.1099 S.3     1  UNL1       -0.0756
     14 C         143.0597  139.0178  163.8246 C.ar    1  UNL1        0.1712
     15 C         144.2901  139.1554  164.6714 C.ar    1  UNL1        0.0473
     16 C         145.1971  140.1521  164.0125 C.ar    1  UNL1        0.0444
     17 C         144.5271  140.6305  162.7585 C.ar    1  UNL1        0.1804
     18 O         143.2061  139.9294  162.6424 O.2     1  UNL1       -0.4443
     19 C         137.4586  143.9651  164.3265 C.3     1  UNL1        0.0338
     20 C         138.5680  144.6463  165.0716 C.3     1  UNL1        0.1328
     21 O         138.2516  145.5510  166.2255 O.3     1  UNL1       -0.3801
     22 H         137.2910  145.5850  166.3558 H       1  UNL1        0.2108
     23 C         141.2253  141.9834  167.5410 C.ar    1  UNL1        0.1388
     24 C         142.6511  141.7598  167.1322 C.ar    1  UNL1        0.0384
     25 C         143.1912  142.4239  165.9004 C.ar    1  UNL1        0.0222
     26 C         142.3054  143.3115  165.0773 C.ar    1  UNL1        0.0813
     27 N         142.8455  143.9755  163.8455 N.ar    1  UNL1       -0.2439
     28 C         141.9598  144.8632  163.0224 C.ar    1  UNL1        0.0986
     29 C         140.5339  145.0868  163.4311 C.ar    1  UNL1        0.0187
     30 C         139.9938  144.4227  164.6629 C.ar    1  UNL1        0.0073
     31 C         140.8797  143.5351  165.4860 C.ar    1  UNL1        0.0190
     32 C         140.3396  142.8710  166.7179 C.ar    1  UNL1        0.0382
     33 C         140.7044  139.8239  168.8883 C.3     1  UNL1        0.2525
     34 O         140.6853  141.3193  168.7728 O.3     1  UNL1       -0.4714
@<TRIPOS>UNITY_ATOM_ATTR
9 1
charge -1
@<TRIPOS>BOND
     1    33    34    1
     2    34    23    1
     3    23    24   ar
     4    24    25   ar
     5    25    26   ar
     6    26    27   ar
     7    27    28   ar
     8    28    29   ar
     9    29    30   ar
    10    30    20    1
    11    20    21    1
    12    20    19    1
    13    19     1    1
    14     2     1    1
    15     2     3    1
    16     3     4    1
    17     4     5    1
    18     5    11    1
    19    11    12    1
    20    12    13    1
    21    13    14    1
    22    14    15   ar
    23    15    16   ar
    24    16    17   ar
    25    17    18   ar
    26     5     6    1
    27     6     7    1
    28     7     8    1
    29     8     9   ar
    30     8    10   ar
    31    30    31   ar
    32    31    32   ar
    33    32    23   ar
    34    31    26   ar
    35     7     2    1
    36    18    14   ar
    37    21    22    1
@<TRIPOS>MOLECULE
*****
 34 37 0 0 0
SMALL
GASTEIGER

@<TRIPOS>ATOM
      1 C         142.2471  144.6848  163.9895 C.3     1  UNL1        0.0033
      2 C         141.5908  143.7150  163.0521 C.3     1  UNL1        0.0080
      3 C         142.2917  143.2973  161.7934 C.3     1  UNL1        0.0177
      4 C         141.6354  142.3274  160.8560 C.3     1  UNL1        0.0721
      5 N         140.2782  141.7753  161.1774 N.3     1  UNL1       -0.2716
      6 C         139.5774  142.1929  162.4361 C.3     1  UNL1        0.0776
      7 C         140.2337  143.1628  163.3735 C.3     1  UNL1        0.0525
      8 C         139.5328  143.5805  164.6322 C.2     1  UNL1        0.0513
      9 O         139.5490  142.6818  165.8330 O.co2   1  UNL1       -0.5491
     10 O         138.8159  144.8968  164.6900 O.co2   1  UNL1       -0.5491
     11 C         139.6219  140.8054  160.2401 C.3     1  UNL1        0.0843
     12 C         138.7072  139.7449  160.7775 C.3     1  UNL1        0.0824
     13 S         139.2185  138.3509  160.9902 S.3     1  UNL1       -0.0756
     14 C         139.6989  137.9270  162.3465 C.ar    1  UNL1        0.1712
     15 C         139.0130  138.2044  163.6513 C.ar    1  UNL1        0.0473
     16 C         139.8398  137.6001  164.7473 C.ar    1  UNL1        0.0444
     17 C         141.0367  136.9491  164.1199 C.ar    1  UNL1        0.1804
     18 O         140.9496  137.1511  162.6360 O.2     1  UNL1       -0.4443
     19 C         143.7425  144.7277  164.0981 C.3     1  UNL1        0.0338
     20 C         144.4537  143.7950  165.0332 C.3     1  UNL1        0.1328
     21 O         145.3023  144.3460  166.1406 O.3     1  UNL1       -0.3801
     22 H         145.2833  145.3154  166.1108 H       1  UNL1        0.2108
     23 C         142.0092  141.4069  167.9610 C.ar    1  UNL1        0.1388
     24 C         141.8718  139.9232  167.7887 C.ar    1  UNL1        0.0384
     25 C         142.5491  139.2355  166.6405 C.ar    1  UNL1        0.0222
     26 C         143.3639  140.0315  165.6646 C.ar    1  UNL1        0.0813
     27 N         144.0412  139.3439  164.5164 N.ar    1  UNL1       -0.2439
     28 C         144.8560  140.1399  163.5405 C.ar    1  UNL1        0.0986
     29 C         144.9935  141.6236  163.7128 C.ar    1  UNL1        0.0187
     30 C         144.3162  142.3113  164.8609 C.ar    1  UNL1        0.0073
     31 C         143.5013  141.5152  165.8369 C.ar    1  UNL1        0.0190
     32 C         142.8240  142.2029  166.9851 C.ar    1  UNL1        0.0382
     33 C         141.9606  142.0761  170.4709 C.3     1  UNL1        0.2525
     34 O         141.3319  142.0946  169.1092 O.3     1  UNL1       -0.4714
@<TRIPOS>UNITY_ATOM_ATTR
9 1
charge -1
@<TRIPOS>BOND
     1    33    34    1
     2    34    23    1
     3    23    24   ar
     4    24    25   ar
     5    25    26   ar
     6    26    27   ar
     7    27    28   ar
     8    28    29   ar
     9    29    30   ar
    10    30    20    1
    11    20    21    1
    12    20    19    1
    13    19     1    1
    14     2     1    1
    15     2     3    1
    16     3     4    1
    17     4     5    1
    18     5    11    1
    19    11    12    1
    20    12    13    1
    21    13    14    1
    22    14    15   ar
    23    15    16   ar
    24    16    17   ar
    25    17    18   ar
    26     5     6    1
    27     6     7    1
    28     7     8    1
    29     8     9   ar
    30     8    10   ar
    31    30    31   ar
    32    31    32   ar
    33    32    23   ar
    34    31    26   ar
    35     7     2    1
    36    18    14   ar
    37    21    22    1
@<TRIPOS>MOLECULE
*****
 34 37 0 0 0
SMALL
GASTEIGER

@<TRIPOS>ATOM
      1 C         140.7685  137.3827  165.0436 C.3     1  UNL1        0.0033
      2 C         141.5662  138.0113  163.9397 C.3     1  UNL1        0.0080
      3 C         141.1289  137.8518  162.5137 C.3     1  UNL1        0.0177
      4 C         141.9265  138.4804  161.4099 C.3     1  UNL1        0.0721
      5 N         143.1615  139.2685  161.7319 N.3     1  UNL1       -0.2716
      6 C         143.5988  139.4280  163.1578 C.3     1  UNL1        0.0776
      7 C         142.8012  138.7994  164.2618 C.3     1  UNL1        0.0525
      8 C         143.2385  138.9588  165.6877 C.2     1  UNL1        0.0513
      9 O         143.0319  140.2660  166.3937 O.co2   1  UNL1       -0.5491
     10 O         143.8824  137.8111  166.4075 O.co2   1  UNL1       -0.5491
     11 C         143.9592  139.8971  160.6281 C.3     1  UNL1        0.0843
     12 C         143.6052  141.2685  160.1341 C.3     1  UNL1        0.0824
     13 S         144.3594  142.4641  160.6356 S.3     1  UNL1       -0.0756
     14 C         143.8328  143.2485  161.8007 C.ar    1  UNL1        0.1712
     15 C         142.6186  142.9111  162.6142 C.ar    1  UNL1        0.0473
     16 C         142.4634  143.9621  163.6732 C.ar    1  UNL1        0.0444
     17 C         143.5817  144.9491  163.5141 C.ar    1  UNL1        0.1804
     18 O         144.4281  144.5081  162.3568 O.2     1  UNL1       -0.4443
     19 C         139.2722  137.3310  164.9520 C.3     1  UNL1        0.0338
     20 C         138.4447  138.4160  165.5752 C.3     1  UNL1        0.1328
     21 O         137.4467  138.0784  166.6429 O.3     1  UNL1       -0.3801
     22 H         137.4628  137.1230  166.8101 H       1  UNL1        0.2108
     23 C         140.4620  141.3922  168.2811 C.ar    1  UNL1        0.1388
     24 C         140.6326  142.8146  167.8366 C.ar    1  UNL1        0.0384
     25 C         140.1308  143.2450  166.4902 C.ar    1  UNL1        0.0222
     26 C         139.4583  142.2529  165.5882 C.ar    1  UNL1        0.0813
     27 N         138.9565  142.6833  164.2418 N.ar    1  UNL1       -0.2439
     28 C         138.2841  141.6912  163.3398 C.ar    1  UNL1        0.0986
     29 C         138.1134  140.2687  163.7843 C.ar    1  UNL1        0.0187
     30 C         138.6153  139.8384  165.1307 C.ar    1  UNL1        0.0073
     31 C         139.2878  140.8305  166.0327 C.ar    1  UNL1        0.0190
     32 C         139.7896  140.4002  167.3792 C.ar    1  UNL1        0.0382
     33 C         140.0799  140.1602  170.5364 C.3     1  UNL1        0.2525
     34 O         140.9639  140.9619  169.6276 O.3     1  UNL1       -0.4714
@<TRIPOS>UNITY_ATOM_ATTR
9 1
charge -1
@<TRIPOS>BOND
     1    33    34    1
     2    34    23    1
     3    23    24   ar
     4    24    25   ar
     5    25    26   ar
     6    26    27   ar
     7    27    28   ar
     8    28    29   ar
     9    29    30   ar
    10    30    20    1
    11    20    21    1
    12    20    19    1
    13    19     1    1
    14     2     1    1
    15     2     3    1
    16     3     4    1
    17     4     5    1
    18     5    11    1
    19    11    12    1
    20    12    13    1
    21    13    14    1
    22    14    15   ar
    23    15    16   ar
    24    16    17   ar
    25    17    18   ar
    26     5     6    1
    27     6     7    1
    28     7     8    1
    29     8     9   ar
    30     8    10   ar
    31    30    31   ar
    32    31    32   ar
    33    32    23   ar
    34    31    26   ar
    35     7     2    1
    36    18    14   ar
    37    21    22    1
@<TRIPOS>MOLECULE
*****
 34 37 0 0 0
SMALL
GASTEIGER

@<TRIPOS>ATOM
      1 C         138.0493  144.1984  164.1234 C.3     1  UNL1        0.0033
      2 C         138.2871  143.3910  162.8818 C.3     1  UNL1        0.0080
      3 C         137.6051  142.0665  162.7064 C.3     1  UNL1        0.0177
      4 C         137.8429  141.2591  161.4648 C.3     1  UNL1        0.0721
      5 N         138.7627  141.7761  160.3986 N.3     1  UNL1       -0.2716
      6 C         139.4447  143.1005  160.5741 C.3     1  UNL1        0.0776
      7 C         139.2069  143.9080  161.8157 C.3     1  UNL1        0.0525
      8 C         139.8889  145.2324  161.9911 C.2     1  UNL1        0.0513
      9 O         141.1778  145.3170  162.7536 O.co2   1  UNL1       -0.5491
     10 O         139.2820  146.4721  161.4040 O.co2   1  UNL1       -0.5491
     11 C         139.0005  140.9687  159.1571 C.3     1  UNL1        0.0843
     12 C         140.2125  140.0910  159.0539 C.3     1  UNL1        0.0824
     13 S         140.2272  138.7504  159.7266 S.3     1  UNL1       -0.0756
     14 C         140.5977  138.6426  161.1761 C.ar    1  UNL1        0.1712
     15 C         141.2772  139.7009  161.9935 C.ar    1  UNL1        0.0473
     16 C         141.4532  139.1699  163.3853 C.ar    1  UNL1        0.0444
     17 C         140.8824  137.7833  163.4281 C.ar    1  UNL1        0.1804
     18 O         140.3536  137.4574  162.0626 O.2     1  UNL1       -0.4443
     19 C         138.9789  144.0665  165.2932 C.3     1  UNL1        0.0338
     20 C         139.9363  142.9139  165.3642 C.3     1  UNL1        0.1328
     21 O         141.2648  142.9988  164.6729 O.3     1  UNL1       -0.3801
     22 H         141.3447  143.8583  164.2305 H       1  UNL1        0.2108
     23 C         141.0997  142.5039  169.6919 C.ar    1  UNL1        0.1388
     24 C         140.7286  141.2666  170.4542 C.ar    1  UNL1        0.0384
     25 C         139.9697  140.1659  169.7741 C.ar    1  UNL1        0.0222
     26 C         139.5819  140.3026  168.3316 C.ar    1  UNL1        0.0813
     27 N         138.8230  139.2019  167.6514 N.ar    1  UNL1       -0.2439
     28 C         138.4352  139.3386  166.2089 C.ar    1  UNL1        0.0986
     29 C         138.8063  140.5759  165.4465 C.ar    1  UNL1        0.0187
     30 C         139.5652  141.6766  166.1266 C.ar    1  UNL1        0.0073
     31 C         139.9530  141.5399  167.5692 C.ar    1  UNL1        0.0190
     32 C         140.7119  142.6406  168.2494 C.ar    1  UNL1        0.0382
     33 C         143.2872  143.3918  170.7764 C.3     1  UNL1        0.2525
     34 O         141.8586  143.6046  170.3720 O.3     1  UNL1       -0.4714
@<TRIPOS>UNITY_ATOM_ATTR
9 1
charge -1
@<TRIPOS>BOND
     1    33    34    1
     2    34    23    1
     3    23    24   ar
     4    24    25   ar
     5    25    26   ar
     6    26    27   ar
     7    27    28   ar
     8    28    29   ar
     9    29    30   ar
    10    30    20    1
    11    20    21    1
    12    20    19    1
    13    19     1    1
    14     2     1    1
    15     2     3    1
    16     3     4    1
    17     4     5    1
    18     5    11    1
    19    11    12    1
    20    12    13    1
    21    13    14    1
    22    14    15   ar
    23    15    16   ar
    24    16    17   ar
    25    17    18   ar
    26     5     6    1
    27     6     7    1
    28     7     8    1
    29     8     9   ar
    30     8    10   ar
    31    30    31   ar
    32    31    32   ar
    33    32    23   ar
    34    31    26   ar
    35     7     2    1
    36    18    14   ar
    37    21    22    1
@<TRIPOS>MOLECULE
*****
 34 37 0 0 0
SMALL
GASTEIGER

@<TRIPOS>ATOM
      1 C         142.7835  144.9671  163.9028 C.3     1  UNL1        0.0033
      2 C         141.4807  144.2759  163.6290 C.3     1  UNL1        0.0080
      3 C         140.5809  143.8936  164.7667 C.3     1  UNL1        0.0177
      4 C         139.2782  143.2024  164.4930 C.3     1  UNL1        0.0721
      5 N         138.8752  142.8934  163.0816 N.3     1  UNL1       -0.2716
      6 C         139.7749  143.2756  161.9439 C.3     1  UNL1        0.0776
      7 C         141.0777  143.9668  162.2176 C.3     1  UNL1        0.0525
      8 C         141.9774  144.3490  161.0799 C.2     1  UNL1        0.0513
      9 O         141.5941  145.4752  160.1663 O.co2   1  UNL1       -0.5491
     10 O         143.2605  143.6051  160.8559 O.co2   1  UNL1       -0.5491
     11 C         137.5724  142.2021  162.8079 C.3     1  UNL1        0.0843
     12 C         137.5649  140.8100  162.2491 C.3     1  UNL1        0.0824
     13 S         138.6370  139.8379  162.6432 S.3     1  UNL1       -0.0756
     14 C         138.5677  139.1423  163.9705 C.ar    1  UNL1        0.1712
     15 C         138.2135  139.7785  165.2819 C.ar    1  UNL1        0.0473
     16 C         138.2673  138.7178  166.3411 C.ar    1  UNL1        0.0444
     17 C         138.6548  137.4260  165.6844 C.ar    1  UNL1        0.1804
     18 O         138.8404  137.6884  164.2191 O.2     1  UNL1       -0.4443
     19 C         144.0309  144.1608  164.1118 C.3     1  UNL1        0.0338
     20 C         144.3631  143.6331  165.4761 C.3     1  UNL1        0.1328
     21 O         145.4350  144.2905  166.2940 O.3     1  UNL1       -0.3801
     22 H         145.8096  145.0350  165.7977 H       1  UNL1        0.2108
     23 C         143.7830  139.9711  162.9261 C.ar    1  UNL1        0.1388
     24 C         143.0432  138.7862  163.4725 C.ar    1  UNL1        0.0384
     25 C         142.4968  138.8219  164.8690 C.ar    1  UNL1        0.0222
     26 C         142.6901  140.0426  165.7190 C.ar    1  UNL1        0.0813
     27 N         142.1437  140.0783  167.1155 N.ar    1  UNL1       -0.2439
     28 C         142.3370  141.2989  167.9655 C.ar    1  UNL1        0.0986
     29 C         143.0768  142.4839  167.4191 C.ar    1  UNL1        0.0187
     30 C         143.6233  142.4482  166.0226 C.ar    1  UNL1        0.0073
     31 C         143.4299  141.2275  165.1726 C.ar    1  UNL1        0.0190
     32 C         143.9763  141.1917  163.7761 C.ar    1  UNL1        0.0382
     33 C         143.9684  138.8054  160.6116 C.3     1  UNL1        0.2525
     34 O         144.3294  139.9354  161.5296 O.3     1  UNL1       -0.4714
@<TRIPOS>UNITY_ATOM_ATTR
9 1
charge -1
@<TRIPOS>BOND
     1    33    34    1
     2    34    23    1
     3    23    24   ar
     4    24    25   ar
     5    25    26   ar
     6    26    27   ar
     7    27    28   ar
     8    28    29   ar
     9    29    30   ar
    10    30    20    1
    11    20    21    1
    12    20    19    1
    13    19     1    1
    14     2     1    1
    15     2     3    1
    16     3     4    1
    17     4     5    1
    18     5    11    1
    19    11    12    1
    20    12    13    1
    21    13    14    1
    22    14    15   ar
    23    15    16   ar
    24    16    17   ar
    25    17    18   ar
    26     5     6    1
    27     6     7    1
    28     7     8    1
    29     8     9   ar
    30     8    10   ar
    31    30    31   ar
    32    31    32   ar
    33    32    23   ar
    34    31    26   ar
    35     7     2    1
    36    18    14   ar
    37    21    22    1
@<TRIPOS>MOLECULE
*****
 34 37 0 0 0
SMALL
GASTEIGER

@<TRIPOS>ATOM
      1 C         140.5395  137.5299  165.0398 C.3     1  UNL1        0.0033
      2 C         141.2881  138.0496  163.8483 C.3     1  UNL1        0.0080
      3 C         140.7704  137.7885  162.4649 C.3     1  UNL1        0.0177
      4 C         141.5189  138.3082  161.2735 C.3     1  UNL1        0.0721
      5 N         142.7852  139.0890  161.4654 N.3     1  UNL1       -0.2716
      6 C         143.3029  139.3501  162.8488 C.3     1  UNL1        0.0776
      7 C         142.5543  138.8304  164.0403 C.3     1  UNL1        0.0525
      8 C         143.0720  139.0916  165.4237 C.2     1  UNL1        0.0513
      9 O         143.7598  137.9980  166.1859 O.co2   1  UNL1       -0.5491
     10 O         142.9020  140.4463  166.0448 O.co2   1  UNL1       -0.5491
     11 C         143.5338  139.6087  160.2740 C.3     1  UNL1        0.0843
     12 C         144.0244  141.0262  160.2563 C.3     1  UNL1        0.0824
     13 S         143.0441  142.1599  160.3180 S.3     1  UNL1       -0.0756
     14 C         143.1306  143.1666  161.4267 C.ar    1  UNL1        0.1712
     15 C         141.9957  143.6199  162.2965 C.ar    1  UNL1        0.0473
     16 C         142.5308  144.6302  163.2675 C.ar    1  UNL1        0.0444
     17 C         143.9965  144.8013  162.9979 C.ar    1  UNL1        0.1804
     18 O         144.3672  143.8967  161.8601 O.2     1  UNL1       -0.4443
     19 C         139.0506  137.6933  165.1197 C.3     1  UNL1        0.0338
     20 C         138.4460  138.5408  166.1997 C.3     1  UNL1        0.1328
     21 O         137.2081  138.0796  166.9103 O.3     1  UNL1       -0.3801
     22 H         136.9312  137.2212  166.5533 H       1  UNL1        0.2108
     23 C         138.1233  142.0617  163.4161 C.ar    1  UNL1        0.1388
     24 C         138.7566  143.3703  163.7855 C.ar    1  UNL1        0.0384
     25 C         139.4975  143.5053  165.0828 C.ar    1  UNL1        0.0222
     26 C         139.6050  142.3317  166.0107 C.ar    1  UNL1        0.0813
     27 N         140.3459  142.4666  167.3079 N.ar    1  UNL1       -0.2439
     28 C         140.4534  141.2930  168.2358 C.ar    1  UNL1        0.0986
     29 C         139.8201  139.9843  167.8664 C.ar    1  UNL1        0.0187
     30 C         139.0793  139.8494  166.5691 C.ar    1  UNL1        0.0073
     31 C         138.9717  141.0231  165.6413 C.ar    1  UNL1        0.0190
     32 C         138.2309  140.8881  164.3440 C.ar    1  UNL1        0.0382
     33 C         137.7509  140.8386  161.1544 C.3     1  UNL1        0.2525
     34 O         137.3825  141.9268  162.1188 O.3     1  UNL1       -0.4714
@<TRIPOS>UNITY_ATOM_ATTR
9 1
charge -1
@<TRIPOS>BOND
     1    33    34    1
     2    34    23    1
     3    23    24   ar
     4    24    25   ar
     5    25    26   ar
     6    26    27   ar
     7    27    28   ar
     8    28    29   ar
     9    29    30   ar
    10    30    20    1
    11    20    21    1
    12    20    19    1
    13    19     1    1
    14     2     1    1
    15     2     3    1
    16     3     4    1
    17     4     5    1
    18     5    11    1
    19    11    12    1
    20    12    13    1
    21    13    14    1
    22    14    15   ar
    23    15    16   ar
    24    16    17   ar
    25    17    18   ar
    26     5     6    1
    27     6     7    1
    28     7     8    1
    29     8     9   ar
    30     8    10   ar
    31    30    31   ar
    32    31    32   ar
    33    32    23   ar
    34    31    26   ar
    35     7     2    1
    36    18    14   ar
    37    21    22    1
