@<TRIPOS>MOLECULE
*****
 42 47 0 0 0
SMALL
GASTEIGER

@<TRIPOS>ATOM
      1 N         142.8161  139.8363  158.3046 N.3     1  UNL1       -0.2723
      2 C         143.9927  139.8401  159.2349 C.3     1  UNL1        0.0738
      3 C         143.9425  139.0532  160.5110 C.3     1  UNL1        0.0369
      4 C         142.7156  138.2626  160.8568 C.3     1  UNL1        0.0745
      5 C         141.5388  138.2589  159.9265 C.3     1  UNL1        0.0369
      6 C         141.5891  139.0458  158.6505 C.3     1  UNL1        0.0738
      7 N         142.6653  137.4758  162.1328 N.pl3   1  UNL1       -0.3058
      8 H         143.2403  136.6848  162.2463 H       1  UNL1        0.1495
      9 C         141.7390  137.8942  163.2360 C.ar    1  UNL1        0.1981
     10 N         140.3031  137.4863  163.3838 N.ar    1  UNL1       -0.2138
     11 C         139.7626  138.1339  164.6242 C.ar    1  UNL1        0.0999
     12 C         138.4095  138.0922  165.2701 C.ar    1  UNL1        0.0207
     13 C         138.1582  138.8586  166.5348 C.ar    1  UNL1        0.0016
     14 C         139.2600  139.6667  167.1535 C.ar    1  UNL1        0.0016
     15 C         140.6132  139.7085  166.5076 C.ar    1  UNL1        0.0188
     16 C         140.8644  138.9421  165.2429 C.ar    1  UNL1        0.0801
     17 N         142.0859  138.7939  164.3849 N.ar    1  UNL1       -0.2956
     18 C         143.4200  139.4332  164.6325 C.3     1  UNL1        0.1354
     19 C         143.6937  140.8182  164.1259 C.ar    1  UNL1        0.0006
     20 C         142.8170  141.9590  164.5503 C.ar    1  UNL1       -0.0001
     21 C         143.0905  143.3440  164.0436 C.ar    1  UNL1        0.0294
     22 C         144.2409  143.5884  163.1125 C.ar    1  UNL1        0.1401
     23 F         144.5145  144.9734  162.6059 F       1  UNL1       -0.2042
     24 C         145.1176  142.4477  162.6881 C.ar    1  UNL1        0.0294
     25 C         144.8440  141.0626  163.1947 C.ar    1  UNL1       -0.0001
     26 C         142.8663  140.6232  157.0285 C.3     1  UNL1        0.0768
     27 C         142.6800  142.1113  157.0572 C.3     1  UNL1        0.0437
     28 C         140.3198  144.0198  160.3794 C.ar    1  UNL1        0.0536
     29 C         139.6113  143.4608  159.1813 C.ar    1  UNL1        0.0042
     30 C         140.3980  142.8246  158.0738 C.ar    1  UNL1       -0.0041
     31 C         141.8933  142.7474  158.1645 C.ar    1  UNL1       -0.0208
     32 C         142.6018  143.3065  159.3627 C.ar    1  UNL1       -0.0041
     33 C         141.8151  143.9426  160.4701 C.ar    1  UNL1        0.0042
     34 O         139.3432  146.1436  161.5131 O.2     1  UNL1       -0.2699
     35 C         139.5331  144.6559  161.4868 C.2     1  UNL1        0.2491
     36 N         138.9363  143.8044  162.5679 N.am    1  UNL1       -0.2732
     37 C         139.1262  142.3167  162.5415 C.3     1  UNL1        0.1108
     38 C         138.5294  141.4651  163.6225 C.3     1  UNL1        0.0904
     39 N         137.7426  142.1013  164.7300 N.3     1  UNL1       -0.2946
     40 C         137.5527  143.5890  164.7563 C.3     1  UNL1        0.0904
     41 C         138.1495  144.4405  163.6752 C.3     1  UNL1        0.1108
     42 H         138.2053  141.8480  165.6030 H       1  UNL1        0.1233
@<TRIPOS>BOND
     1    34    35    2
     2    35    28    1
     3    28    29   ar
     4    29    30   ar
     5    30    31   ar
     6    31    27    1
     7    27    26    1
     8    26     1    1
     9     1     2    1
    10     2     3    1
    11     3     4    1
    12     4     7    1
    13     7     9    1
    14     9    10   ar
    15    10    11   ar
    16    11    12   ar
    17    12    13   ar
    18    13    14   ar
    19    14    15   ar
    20    15    16   ar
    21    16    17   ar
    22    17    18    1
    23    18    19    1
    24    19    20   ar
    25    20    21   ar
    26    21    22   ar
    27    22    23    1
    28    22    24   ar
    29    24    25   ar
    30     4     5    1
    31     5     6    1
    32    31    32   ar
    33    32    33   ar
    34    35    36   am
    35    36    37    1
    36    37    38    1
    37    38    39    1
    38    39    40    1
    39    40    41    1
    40    33    28   ar
    41    41    36    1
    42     6     1    1
    43    17     9   ar
    44    25    19   ar
    45    16    11   ar
    46     7     8    1
    47    39    42    1
@<TRIPOS>MOLECULE
*****
 42 47 0 0 0
SMALL
GASTEIGER

@<TRIPOS>ATOM
      1 N         143.0502  141.0645  157.7550 N.3     1  UNL1       -0.2723
      2 C         141.7370  141.7480  157.5141 C.3     1  UNL1        0.0738
      3 C         141.3844  142.9873  158.2822 C.3     1  UNL1        0.0369
      4 C         142.3451  143.5430  159.2912 C.3     1  UNL1        0.0745
      5 C         143.6585  142.8594  159.5322 C.3     1  UNL1        0.0369
      6 C         144.0110  141.6202  158.7641 C.3     1  UNL1        0.0738
      7 N         141.9927  144.7822  160.0593 N.pl3   1  UNL1       -0.3058
      8 H         142.3462  145.6556  159.7738 H       1  UNL1        0.1495
      9 C         141.1015  144.6909  161.2625 C.ar    1  UNL1        0.1981
     10 N         139.6029  144.7539  161.2565 N.ar    1  UNL1       -0.2138
     11 C         139.1277  144.6224  162.6732 C.ar    1  UNL1        0.0999
     12 C         137.7535  144.6154  163.2743 C.ar    1  UNL1        0.0207
     13 C         137.5842  144.4641  164.7570 C.ar    1  UNL1        0.0016
     14 C         138.7892  144.3197  165.6385 C.ar    1  UNL1        0.0016
     15 C         140.1634  144.3267  165.0374 C.ar    1  UNL1        0.0188
     16 C         140.3327  144.4780  163.5547 C.ar    1  UNL1        0.0801
     17 N         141.5525  144.5203  162.6828 N.ar    1  UNL1       -0.2956
     18 C         142.9739  144.4113  163.1495 C.3     1  UNL1        0.1354
     19 C         143.5743  143.0629  163.4167 C.ar    1  UNL1        0.0006
     20 C         145.0635  142.8857  163.3868 C.ar    1  UNL1       -0.0001
     21 C         145.6640  141.5374  163.6540 C.ar    1  UNL1        0.0294
     22 C         144.7751  140.3661  163.9512 C.ar    1  UNL1        0.1401
     23 F         145.3755  139.0178  164.2184 F       1  UNL1       -0.2042
     24 C         143.2859  140.5433  163.9811 C.ar    1  UNL1        0.0294
     25 C         142.6855  141.8917  163.7139 C.ar    1  UNL1       -0.0001
     26 C         143.4028  139.8252  156.9869 C.3     1  UNL1        0.0768
     27 C         142.9290  138.4853  157.4666 C.3     1  UNL1        0.0437
     28 C         141.2841  138.0393  161.6313 C.ar    1  UNL1        0.0536
     29 C         140.3532  138.2702  160.4781 C.ar    1  UNL1        0.0042
     30 C         140.9015  138.4189  159.0897 C.ar    1  UNL1       -0.0041
     31 C         142.3807  138.3366  158.8548 C.ar    1  UNL1       -0.0208
     32 C         143.3116  138.1057  160.0081 C.ar    1  UNL1       -0.0041
     33 C         142.7633  137.9570  161.3964 C.ar    1  UNL1        0.0042
     34 O         141.1757  136.7441  163.8809 O.2     1  UNL1       -0.2699
     35 C         140.7358  137.8906  163.0195 C.2     1  UNL1        0.2491
     36 N         139.7474  138.8884  163.5465 N.am    1  UNL1       -0.2732
     37 C         139.3074  140.0349  162.6851 C.3     1  UNL1        0.1108
     38 C         138.3191  141.0327  163.2119 C.3     1  UNL1        0.0904
     39 N         137.7708  140.8841  164.6002 N.3     1  UNL1       -0.2946
     40 C         138.2108  139.7376  165.4616 C.3     1  UNL1        0.0904
     41 C         139.1991  138.7397  164.9347 C.3     1  UNL1        0.1108
     42 H         136.7572  140.8129  164.5104 H       1  UNL1        0.1233
@<TRIPOS>BOND
     1    34    35    2
     2    35    28    1
     3    28    29   ar
     4    29    30   ar
     5    30    31   ar
     6    31    27    1
     7    27    26    1
     8    26     1    1
     9     1     2    1
    10     2     3    1
    11     3     4    1
    12     4     7    1
    13     7     9    1
    14     9    10   ar
    15    10    11   ar
    16    11    12   ar
    17    12    13   ar
    18    13    14   ar
    19    14    15   ar
    20    15    16   ar
    21    16    17   ar
    22    17    18    1
    23    18    19    1
    24    19    20   ar
    25    20    21   ar
    26    21    22   ar
    27    22    23    1
    28    22    24   ar
    29    24    25   ar
    30     4     5    1
    31     5     6    1
    32    31    32   ar
    33    32    33   ar
    34    35    36   am
    35    36    37    1
    36    37    38    1
    37    38    39    1
    38    39    40    1
    39    40    41    1
    40    33    28   ar
    41    41    36    1
    42     6     1    1
    43    17     9   ar
    44    25    19   ar
    45    16    11   ar
    46     7     8    1
    47    39    42    1
@<TRIPOS>MOLECULE
*****
 42 47 0 0 0
SMALL
GASTEIGER

@<TRIPOS>ATOM
      1 N         139.5940  137.5515  164.0577 N.3     1  UNL1       -0.2723
      2 C         141.0895  137.5455  164.1731 C.3     1  UNL1        0.0738
      3 C         141.9367  137.7581  162.9536 C.3     1  UNL1        0.0369
      4 C         141.2883  137.9766  161.6187 C.3     1  UNL1        0.0745
      5 C         139.7927  137.9825  161.5033 C.3     1  UNL1        0.0369
      6 C         138.9456  137.7700  162.7228 C.3     1  UNL1        0.0738
      7 N         142.1354  138.1891  160.3992 N.pl3   1  UNL1       -0.3058
      8 H         142.7143  137.4642  160.0695 H       1  UNL1        0.1495
      9 C         142.1007  139.5061  159.6821 C.ar    1  UNL1        0.1981
     10 N         141.0801  139.9315  158.6685 N.ar    1  UNL1       -0.2138
     11 C         141.4290  141.3173  158.2126 C.ar    1  UNL1        0.0999
     12 C         140.7808  142.2423  157.2257 C.ar    1  UNL1        0.0207
     13 C         141.3688  143.5984  156.9706 C.ar    1  UNL1        0.0016
     14 C         142.6052  144.0295  157.7024 C.ar    1  UNL1        0.0016
     15 C         143.2535  143.1045  158.6894 C.ar    1  UNL1        0.0188
     16 C         142.6654  141.7484  158.9445 C.ar    1  UNL1        0.0801
     17 N         143.0805  140.6290  159.8526 N.ar    1  UNL1       -0.2956
     18 C         144.2671  140.6321  160.7702 C.3     1  UNL1        0.1354
     19 C         144.1541  141.2319  162.1404 C.ar    1  UNL1        0.0006
     20 C         142.8023  141.4778  162.7424 C.ar    1  UNL1       -0.0001
     21 C         142.6893  142.0775  164.1126 C.ar    1  UNL1        0.0294
     22 C         143.9281  142.4314  164.8809 C.ar    1  UNL1        0.1401
     23 F         143.8150  143.0312  166.2511 F       1  UNL1       -0.2042
     24 C         145.2798  142.1855  164.2789 C.ar    1  UNL1        0.0294
     25 C         145.3928  141.5858  162.9087 C.ar    1  UNL1       -0.0001
     26 C         138.7467  137.3389  165.2772 C.3     1  UNL1        0.0768
     27 C         138.5371  138.4614  166.2497 C.3     1  UNL1        0.0437
     28 C         138.9118  142.7296  164.8741 C.ar    1  UNL1        0.0536
     29 C         139.8293  142.2007  165.9364 C.ar    1  UNL1        0.0042
     30 C         139.7044  140.7779  166.3950 C.ar    1  UNL1       -0.0041
     31 C         138.6620  139.8841  165.7912 C.ar    1  UNL1       -0.0208
     32 C         137.7445  140.4131  164.7289 C.ar    1  UNL1       -0.0041
     33 C         137.8694  141.8358  164.2704 C.ar    1  UNL1        0.0042
     34 O         138.8342  145.2748  165.3898 O.2     1  UNL1       -0.2699
     35 C         139.0367  144.1523  164.4156 C.2     1  UNL1        0.2491
     36 N         139.3642  144.4526  162.9829 N.am    1  UNL1       -0.2732
     37 C         139.5667  143.3301  162.0087 C.3     1  UNL1        0.1108
     38 C         139.8941  143.6303  160.5760 C.3     1  UNL1        0.0904
     39 N         140.0191  145.0530  160.1174 N.3     1  UNL1       -0.2946
     40 C         139.8165  146.1755  161.0916 C.3     1  UNL1        0.0904
     41 C         139.4891  145.8753  162.5243 C.3     1  UNL1        0.1108
     42 H         139.3352  145.1832  159.3719 H       1  UNL1        0.1233
@<TRIPOS>BOND
     1    34    35    2
     2    35    28    1
     3    28    29   ar
     4    29    30   ar
     5    30    31   ar
     6    31    27    1
     7    27    26    1
     8    26     1    1
     9     1     2    1
    10     2     3    1
    11     3     4    1
    12     4     7    1
    13     7     9    1
    14     9    10   ar
    15    10    11   ar
    16    11    12   ar
    17    12    13   ar
    18    13    14   ar
    19    14    15   ar
    20    15    16   ar
    21    16    17   ar
    22    17    18    1
    23    18    19    1
    24    19    20   ar
    25    20    21   ar
    26    21    22   ar
    27    22    23    1
    28    22    24   ar
    29    24    25   ar
    30     4     5    1
    31     5     6    1
    32    31    32   ar
    33    32    33   ar
    34    35    36   am
    35    36    37    1
    36    37    38    1
    37    38    39    1
    38    39    40    1
    39    40    41    1
    40    33    28   ar
    41    41    36    1
    42     6     1    1
    43    17     9   ar
    44    25    19   ar
    45    16    11   ar
    46     7     8    1
    47    39    42    1
@<TRIPOS>MOLECULE
*****
 42 47 0 0 0
SMALL
GASTEIGER

@<TRIPOS>ATOM
      1 N         141.9074  141.4817  166.7723 N.3     1  UNL1       -0.2723
      2 C         140.4432  141.7872  166.8847 C.3     1  UNL1        0.0738
      3 C         139.8277  142.8408  166.0123 C.3     1  UNL1        0.0369
      4 C         140.6764  143.5889  165.0275 C.3     1  UNL1        0.0745
      5 C         142.1407  143.2834  164.9150 C.3     1  UNL1        0.0369
      6 C         142.7562  142.2298  165.7874 C.3     1  UNL1        0.0738
      7 N         140.0610  144.6425  164.1551 N.pl3   1  UNL1       -0.3058
      8 H         139.5959  145.4088  164.5622 H       1  UNL1        0.1495
      9 C         140.1540  144.5286  162.6623 C.ar    1  UNL1        0.1981
     10 N         141.1975  145.1651  161.7928 N.ar    1  UNL1       -0.2138
     11 C         140.9084  144.7881  160.3701 C.ar    1  UNL1        0.0999
     12 C         141.6001  145.1242  159.0822 C.ar    1  UNL1        0.0207
     13 C         141.0695  144.5908  157.7846 C.ar    1  UNL1        0.0016
     14 C         139.8473  143.7213  157.7747 C.ar    1  UNL1        0.0016
     15 C         139.1556  143.3852  159.0625 C.ar    1  UNL1        0.0188
     16 C         139.6861  143.9186  160.3602 C.ar    1  UNL1        0.0801
     17 N         139.2199  143.7582  161.7769 N.ar    1  UNL1       -0.2956
     18 C         138.0288  142.9665  162.2288 C.3     1  UNL1        0.1354
     19 C         138.1491  141.4868  162.4431 C.ar    1  UNL1        0.0006
     20 C         138.1939  140.5595  161.2648 C.ar    1  UNL1       -0.0001
     21 C         138.3142  139.0798  161.4790 C.ar    1  UNL1        0.0294
     22 C         138.3897  138.5273  162.8716 C.ar    1  UNL1        0.1401
     23 F         138.5100  137.0476  163.0858 F       1  UNL1       -0.2042
     24 C         138.3449  139.4545  164.0498 C.ar    1  UNL1        0.0294
     25 C         138.2246  140.9343  163.8355 C.ar    1  UNL1       -0.0001
     26 C         142.5230  140.4281  167.6447 C.3     1  UNL1        0.0768
     27 C         142.9625  139.1236  167.0487 C.3     1  UNL1        0.0437
     28 C         143.2597  138.6779  162.5808 C.ar    1  UNL1        0.0536
     29 C         144.4618  139.0962  163.3743 C.ar    1  UNL1        0.0042
     30 C         144.3628  139.2448  164.8637 C.ar    1  UNL1       -0.0041
     31 C         143.0616  138.9750  165.5594 C.ar    1  UNL1       -0.0208
     32 C         141.8594  138.5567  164.7658 C.ar    1  UNL1       -0.0041
     33 C         141.9585  138.4081  163.2765 C.ar    1  UNL1        0.0042
     34 O         143.2877  137.1672  160.4672 O.2     1  UNL1       -0.2699
     35 C         143.3588  138.5293  161.0915 C.2     1  UNL1        0.2491
     36 N         143.5290  139.7428  160.2263 N.am    1  UNL1       -0.2732
     37 C         143.6001  141.1049  160.8506 C.3     1  UNL1        0.1108
     38 C         143.7703  142.3184  159.9855 C.3     1  UNL1        0.0904
     39 N         143.8694  142.1699  158.4961 N.3     1  UNL1       -0.2946
     40 C         143.7983  140.8078  157.8719 C.3     1  UNL1        0.0904
     41 C         143.6281  139.5943  158.7370 C.3     1  UNL1        0.1108
     42 H         144.7636  142.5746  158.2187 H       1  UNL1        0.1233
@<TRIPOS>BOND
     1    34    35    2
     2    35    28    1
     3    28    29   ar
     4    29    30   ar
     5    30    31   ar
     6    31    27    1
     7    27    26    1
     8    26     1    1
     9     1     2    1
    10     2     3    1
    11     3     4    1
    12     4     7    1
    13     7     9    1
    14     9    10   ar
    15    10    11   ar
    16    11    12   ar
    17    12    13   ar
    18    13    14   ar
    19    14    15   ar
    20    15    16   ar
    21    16    17   ar
    22    17    18    1
    23    18    19    1
    24    19    20   ar
    25    20    21   ar
    26    21    22   ar
    27    22    23    1
    28    22    24   ar
    29    24    25   ar
    30     4     5    1
    31     5     6    1
    32    31    32   ar
    33    32    33   ar
    34    35    36   am
    35    36    37    1
    36    37    38    1
    37    38    39    1
    38    39    40    1
    39    40    41    1
    40    33    28   ar
    41    41    36    1
    42     6     1    1
    43    17     9   ar
    44    25    19   ar
    45    16    11   ar
    46     7     8    1
    47    39    42    1
@<TRIPOS>MOLECULE
*****
 42 47 0 0 0
SMALL
GASTEIGER

@<TRIPOS>ATOM
      1 N         139.0633  138.9676  161.3753 N.3     1  UNL1       -0.2723
      2 C         140.3677  138.5225  160.7834 C.3     1  UNL1        0.0738
      3 C         141.2003  139.4872  159.9920 C.3     1  UNL1        0.0369
      4 C         140.7284  140.8970  159.7926 C.3     1  UNL1        0.0745
      5 C         139.4239  141.3421  160.3845 C.3     1  UNL1        0.0369
      6 C         138.5914  140.3774  161.1759 C.3     1  UNL1        0.0738
      7 N         141.5609  141.8617  159.0013 N.pl3   1  UNL1       -0.3058
      8 H         142.5422  141.7819  159.0032 H       1  UNL1        0.1495
      9 C         140.8984  142.9480  158.2070 C.ar    1  UNL1        0.1981
     10 N         140.1050  142.7609  156.9478 N.ar    1  UNL1       -0.2138
     11 C         139.6292  144.1095  156.4950 C.ar    1  UNL1        0.0999
     12 C         138.8058  144.5400  155.3174 C.ar    1  UNL1        0.0207
     13 C         138.4817  145.9910  155.1192 C.ar    1  UNL1        0.0016
     14 C         138.9811  147.0116  156.0985 C.ar    1  UNL1        0.0016
     15 C         139.8045  146.5811  157.2761 C.ar    1  UNL1        0.0188
     16 C         140.1285  145.1301  157.4743 C.ar    1  UNL1        0.0801
     17 N         140.9129  144.4122  158.5323 N.ar    1  UNL1       -0.2956
     18 C         141.5926  145.0472  159.7092 C.3     1  UNL1        0.1354
     19 C         141.1114  144.7567  161.0998 C.ar    1  UNL1        0.0006
     20 C         139.8924  145.4503  161.6319 C.ar    1  UNL1       -0.0001
     21 C         139.4112  145.1598  163.0226 C.ar    1  UNL1        0.0294
     22 C         140.1490  144.1756  163.8812 C.ar    1  UNL1        0.1401
     23 F         139.6678  143.8851  165.2719 F       1  UNL1       -0.2042
     24 C         141.3679  143.4821  163.3492 C.ar    1  UNL1        0.0294
     25 C         141.8492  143.7726  161.9585 C.ar    1  UNL1       -0.0001
     26 C         138.2307  138.0028  162.1667 C.3     1  UNL1        0.0768
     27 C         138.7084  137.5221  163.5048 C.3     1  UNL1        0.0437
     28 C         140.7148  140.3843  166.3389 C.ar    1  UNL1        0.0536
     29 C         141.4656  139.1949  165.8179 C.ar    1  UNL1        0.0042
     30 C         140.7968  138.2407  164.8731 C.ar    1  UNL1       -0.0041
     31 C         139.3772  138.4761  164.4495 C.ar    1  UNL1       -0.0208
     32 C         138.6265  139.6657  164.9705 C.ar    1  UNL1       -0.0041
     33 C         139.2953  140.6197  165.9152 C.ar    1  UNL1        0.0042
     34 O         142.2419  142.4459  166.7482 O.2     1  UNL1       -0.2699
     35 C         141.3836  141.3384  167.2835 C.2     1  UNL1        0.2491
     36 N         141.1941  141.1849  168.7636 N.am    1  UNL1       -0.2732
     37 C         140.3357  140.0773  169.2990 C.3     1  UNL1        0.1108
     38 C         140.1462  139.9238  170.7790 C.3     1  UNL1        0.0904
     39 N         140.8150  140.8779  171.7237 N.3     1  UNL1       -0.2946
     40 C         141.6733  141.9855  171.1884 C.3     1  UNL1        0.0904
     41 C         141.8629  142.1389  169.7083 C.3     1  UNL1        0.1108
     42 H         141.4061  140.3180  172.3382 H       1  UNL1        0.1233
@<TRIPOS>BOND
     1    34    35    2
     2    35    28    1
     3    28    29   ar
     4    29    30   ar
     5    30    31   ar
     6    31    27    1
     7    27    26    1
     8    26     1    1
     9     1     2    1
    10     2     3    1
    11     3     4    1
    12     4     7    1
    13     7     9    1
    14     9    10   ar
    15    10    11   ar
    16    11    12   ar
    17    12    13   ar
    18    13    14   ar
    19    14    15   ar
    20    15    16   ar
    21    16    17   ar
    22    17    18    1
    23    18    19    1
    24    19    20   ar
    25    20    21   ar
    26    21    22   ar
    27    22    23    1
    28    22    24   ar
    29    24    25   ar
    30     4     5    1
    31     5     6    1
    32    31    32   ar
    33    32    33   ar
    34    35    36   am
    35    36    37    1
    36    37    38    1
    37    38    39    1
    38    39    40    1
    39    40    41    1
    40    33    28   ar
    41    41    36    1
    42     6     1    1
    43    17     9   ar
    44    25    19   ar
    45    16    11   ar
    46     7     8    1
    47    39    42    1
@<TRIPOS>MOLECULE
*****
 42 47 0 0 0
SMALL
GASTEIGER

@<TRIPOS>ATOM
      1 N         139.8651  138.8079  161.2759 N.3     1  UNL1       -0.2723
      2 C         140.7659  138.3739  160.1579 C.3     1  UNL1        0.0738
      3 C         141.1661  139.3528  159.0940 C.3     1  UNL1        0.0369
      4 C         140.6653  140.7658  159.1483 C.3     1  UNL1        0.0745
      5 C         139.7645  141.1998  160.2665 C.3     1  UNL1        0.0369
      6 C         139.3644  140.2209  161.3302 C.3     1  UNL1        0.0738
      7 N         141.0654  141.7446  158.0845 N.pl3   1  UNL1       -0.3058
      8 H         140.3768  142.2610  157.6066 H       1  UNL1        0.1495
      9 C         142.5147  141.9369  157.7490 C.ar    1  UNL1        0.1981
     10 N         143.1623  141.6328  156.4306 N.ar    1  UNL1       -0.2138
     11 C         144.6187  141.9749  156.5396 C.ar    1  UNL1        0.0999
     12 C         145.7475  141.8836  155.5561 C.ar    1  UNL1        0.0207
     13 C         147.1289  142.3079  155.9584 C.ar    1  UNL1        0.0016
     14 C         147.3814  142.8234  157.3442 C.ar    1  UNL1        0.0016
     15 C         146.2525  142.9147  158.3277 C.ar    1  UNL1        0.0188
     16 C         144.8712  142.4905  157.9254 C.ar    1  UNL1        0.0801
     17 N         143.5709  142.4669  158.6728 N.ar    1  UNL1       -0.2956
     18 C         143.3632  142.8978  160.0945 C.3     1  UNL1        0.1354
     19 C         143.9293  142.0793  161.2167 C.ar    1  UNL1        0.0006
     20 C         144.8749  142.7051  162.1987 C.ar    1  UNL1       -0.0001
     21 C         145.4411  141.8865  163.3209 C.ar    1  UNL1        0.0294
     22 C         145.0617  140.4421  163.4611 C.ar    1  UNL1        0.1401
     23 F         145.6279  139.6235  164.5834 F       1  UNL1       -0.2042
     24 C         144.1162  139.8163  162.4792 C.ar    1  UNL1        0.0294
     25 C         143.5500  140.6348  161.3570 C.ar    1  UNL1       -0.0001
     26 C         139.4650  137.8290  162.3398 C.3     1  UNL1        0.0768
     27 C         140.4654  137.3858  163.3657 C.3     1  UNL1        0.0437
     28 C         141.8639  140.2600  166.5332 C.ar    1  UNL1        0.0536
     29 C         142.7188  139.0871  166.1546 C.ar    1  UNL1        0.0042
     30 C         142.2526  138.1290  165.0987 C.ar    1  UNL1       -0.0041
     31 C         140.9316  138.3438  164.4215 C.ar    1  UNL1       -0.0208
     32 C         140.0767  139.5168  164.8002 C.ar    1  UNL1       -0.0041
     33 C         140.5428  140.4749  165.8560 C.ar    1  UNL1        0.0042
     34 O         143.3152  142.2948  167.2425 O.2     1  UNL1       -0.2699
     35 C         142.3300  141.2181  167.5890 C.2     1  UNL1        0.2491
     36 N         141.8111  141.0994  168.9914 N.am    1  UNL1       -0.2732
     37 C         140.8259  140.0226  169.3379 C.3     1  UNL1        0.1108
     38 C         140.3070  139.9039  170.7402 C.3     1  UNL1        0.0904
     39 N         140.7731  140.8620  171.7961 N.3     1  UNL1       -0.2946
     40 C         141.7583  141.9387  171.4496 C.3     1  UNL1        0.0904
     41 C         142.2772  142.0574  170.0472 C.3     1  UNL1        0.1108
     42 H         141.1972  140.3017  172.5355 H       1  UNL1        0.1233
@<TRIPOS>BOND
     1    34    35    2
     2    35    28    1
     3    28    29   ar
     4    29    30   ar
     5    30    31   ar
     6    31    27    1
     7    27    26    1
     8    26     1    1
     9     1     2    1
    10     2     3    1
    11     3     4    1
    12     4     7    1
    13     7     9    1
    14     9    10   ar
    15    10    11   ar
    16    11    12   ar
    17    12    13   ar
    18    13    14   ar
    19    14    15   ar
    20    15    16   ar
    21    16    17   ar
    22    17    18    1
    23    18    19    1
    24    19    20   ar
    25    20    21   ar
    26    21    22   ar
    27    22    23    1
    28    22    24   ar
    29    24    25   ar
    30     4     5    1
    31     5     6    1
    32    31    32   ar
    33    32    33   ar
    34    35    36   am
    35    36    37    1
    36    37    38    1
    37    38    39    1
    38    39    40    1
    39    40    41    1
    40    33    28   ar
    41    41    36    1
    42     6     1    1
    43    17     9   ar
    44    25    19   ar
    45    16    11   ar
    46     7     8    1
    47    39    42    1
@<TRIPOS>MOLECULE
*****
 42 47 0 0 0
SMALL
GASTEIGER

@<TRIPOS>ATOM
      1 N         139.4057  144.2048  162.1673 N.3     1  UNL1       -0.2723
      2 C         140.7748  144.7731  162.3964 C.3     1  UNL1        0.0738
      3 C         141.9328  144.2959  161.5709 C.3     1  UNL1        0.0369
      4 C         141.7215  143.2503  160.5163 C.3     1  UNL1        0.0745
      5 C         140.3523  142.6819  160.2873 C.3     1  UNL1        0.0369
      6 C         139.1945  143.1592  161.1128 C.3     1  UNL1        0.0738
      7 N         142.8794  142.7730  159.6908 N.pl3   1  UNL1       -0.3058
      8 H         143.6911  143.3251  159.6157 H       1  UNL1        0.1495
      9 C         142.8006  141.4546  158.9797 C.ar    1  UNL1        0.1981
     10 N         142.6390  141.2585  157.5014 N.ar    1  UNL1       -0.2138
     11 C         142.6081  139.7836  157.2300 C.ar    1  UNL1        0.0999
     12 C         142.4686  138.9996  155.9589 C.ar    1  UNL1        0.0207
     13 C         142.4716  137.5002  155.9984 C.ar    1  UNL1        0.0016
     14 C         142.6141  136.7847  157.3090 C.ar    1  UNL1        0.0016
     15 C         142.7536  137.5687  158.5802 C.ar    1  UNL1        0.0188
     16 C         142.7506  139.0681  158.5407 C.ar    1  UNL1        0.0801
     17 N         142.8696  140.1009  159.6220 N.ar    1  UNL1       -0.2956
     18 C         143.0294  139.8278  161.0882 C.3     1  UNL1        0.1354
     19 C         141.9343  139.1383  161.8465 C.ar    1  UNL1        0.0006
     20 C         140.5043  139.5334  161.6242 C.ar    1  UNL1       -0.0001
     21 C         139.4091  138.8439  162.3825 C.ar    1  UNL1        0.0294
     22 C         139.7437  137.7593  163.3632 C.ar    1  UNL1        0.1401
     23 F         138.6485  137.0699  164.1215 F       1  UNL1       -0.2042
     24 C         141.1736  137.3643  163.5855 C.ar    1  UNL1        0.0294
     25 C         142.2688  138.0537  162.8272 C.ar    1  UNL1       -0.0001
     26 C         138.2477  144.6821  162.9929 C.3     1  UNL1        0.0768
     27 C         137.7265  143.8339  164.1149 C.3     1  UNL1        0.0437
     28 C         140.5294  141.1571  166.4014 C.ar    1  UNL1        0.0536
     29 C         140.7863  142.6336  166.3391 C.ar    1  UNL1        0.0042
     30 C         139.8519  143.5259  165.5769 C.ar    1  UNL1       -0.0041
     31 C         138.6608  142.9417  164.8770 C.ar    1  UNL1       -0.0208
     32 C         138.4040  141.4651  164.9393 C.ar    1  UNL1       -0.0041
     33 C         139.3383  140.5728  165.7015 C.ar    1  UNL1        0.0042
     34 O         142.2147  139.1803  166.4494 O.2     1  UNL1       -0.2699
     35 C         141.4637  140.2648  167.1635 C.2     1  UNL1        0.2491
     36 N         141.6471  140.4571  168.6399 N.am    1  UNL1       -0.2732
     37 C         140.8962  141.5416  169.3540 C.3     1  UNL1        0.1108
     38 C         141.0795  141.7338  170.8302 C.3     1  UNL1        0.0904
     39 N         142.0139  140.8416  171.5925 N.3     1  UNL1       -0.2946
     40 C         142.7648  139.7571  170.8784 C.3     1  UNL1        0.0904
     41 C         142.5814  139.5648  169.4020 C.3     1  UNL1        0.1108
     42 H         141.4602  140.3873  172.3188 H       1  UNL1        0.1233
@<TRIPOS>BOND
     1    34    35    2
     2    35    28    1
     3    28    29   ar
     4    29    30   ar
     5    30    31   ar
     6    31    27    1
     7    27    26    1
     8    26     1    1
     9     1     2    1
    10     2     3    1
    11     3     4    1
    12     4     7    1
    13     7     9    1
    14     9    10   ar
    15    10    11   ar
    16    11    12   ar
    17    12    13   ar
    18    13    14   ar
    19    14    15   ar
    20    15    16   ar
    21    16    17   ar
    22    17    18    1
    23    18    19    1
    24    19    20   ar
    25    20    21   ar
    26    21    22   ar
    27    22    23    1
    28    22    24   ar
    29    24    25   ar
    30     4     5    1
    31     5     6    1
    32    31    32   ar
    33    32    33   ar
    34    35    36   am
    35    36    37    1
    36    37    38    1
    37    38    39    1
    38    39    40    1
    39    40    41    1
    40    33    28   ar
    41    41    36    1
    42     6     1    1
    43    17     9   ar
    44    25    19   ar
    45    16    11   ar
    46     7     8    1
    47    39    42    1
@<TRIPOS>MOLECULE
*****
 42 47 0 0 0
SMALL
GASTEIGER

@<TRIPOS>ATOM
      1 N         139.0647  138.2771  161.8818 N.3     1  UNL1       -0.2723
      2 C         139.7916  138.2549  160.5700 C.3     1  UNL1        0.0738
      3 C         139.4166  139.2241  159.4882 C.3     1  UNL1        0.0369
      4 C         138.3146  140.2153  159.7183 C.3     1  UNL1        0.0745
      5 C         137.5876  140.2374  161.0302 C.3     1  UNL1        0.0369
      6 C         137.9626  139.2683  162.1120 C.3     1  UNL1        0.0738
      7 N         137.9395  141.1844  158.6366 N.pl3   1  UNL1       -0.3058
      8 H         137.0539  141.1278  158.2104 H       1  UNL1        0.1495
      9 C         138.9138  142.2398  158.2043 C.ar    1  UNL1        0.1981
     10 N         139.3813  142.4862  156.8005 N.ar    1  UNL1       -0.2138
     11 C         140.3482  143.6328  156.8284 C.ar    1  UNL1        0.0999
     12 C         141.1269  144.3156  155.7434 C.ar    1  UNL1        0.0207
     13 C         142.0357  145.4606  156.0796 C.ar    1  UNL1        0.0016
     14 C         142.1657  145.9228  157.5007 C.ar    1  UNL1        0.0016
     15 C         141.3870  145.2399  158.5856 C.ar    1  UNL1        0.0188
     16 C         140.4782  144.0949  158.2495 C.ar    1  UNL1        0.0801
     17 N         139.5918  143.2340  159.0998 N.ar    1  UNL1       -0.2956
     18 C         139.4144  143.3474  160.5850 C.3     1  UNL1        0.1354
     19 C         140.5656  143.0585  161.5021 C.ar    1  UNL1        0.0006
     20 C         141.3389  144.1887  162.1142 C.ar    1  UNL1       -0.0001
     21 C         142.4901  143.8999  163.0313 C.ar    1  UNL1        0.0294
     22 C         142.8681  142.4807  163.3364 C.ar    1  UNL1        0.1401
     23 F         144.0194  142.1918  164.2535 F       1  UNL1       -0.2042
     24 C         142.0949  141.3505  162.7243 C.ar    1  UNL1        0.0294
     25 C         140.9436  141.6393  161.8072 C.ar    1  UNL1       -0.0001
     26 C         139.4397  137.3079  162.9636 C.3     1  UNL1        0.0768
     27 C         140.8347  137.3022  163.5148 C.3     1  UNL1        0.0437
     28 C         142.0285  140.3044  166.6472 C.ar    1  UNL1        0.0536
     29 C         143.0152  139.2760  166.1793 C.ar    1  UNL1        0.0042
     30 C         142.6173  138.2752  165.1352 C.ar    1  UNL1       -0.0041
     31 C         141.2327  138.3029  164.5589 C.ar    1  UNL1       -0.0208
     32 C         140.2460  139.3313  165.0268 C.ar    1  UNL1       -0.0041
     33 C         140.6439  140.3320  166.0709 C.ar    1  UNL1        0.0042
     34 O         143.3711  142.4170  167.3430 O.2     1  UNL1       -0.2699
     35 C         142.4265  141.3051  167.6913 C.2     1  UNL1        0.2491
     36 N         141.8798  141.1939  169.0837 N.am    1  UNL1       -0.2732
     37 C         140.9352  140.0819  169.4320 C.3     1  UNL1        0.1108
     38 C         140.3885  139.9707  170.8243 C.3     1  UNL1        0.0904
     39 N         140.7865  140.9714  171.8685 N.3     1  UNL1       -0.2946
     40 C         141.7311  142.0834  171.5203 C.3     1  UNL1        0.0904
     41 C         142.2778  142.1946  170.1278 C.3     1  UNL1        0.1108
     42 H         141.2170  140.4470  172.6301 H       1  UNL1        0.1233
@<TRIPOS>BOND
     1    34    35    2
     2    35    28    1
     3    28    29   ar
     4    29    30   ar
     5    30    31   ar
     6    31    27    1
     7    27    26    1
     8    26     1    1
     9     1     2    1
    10     2     3    1
    11     3     4    1
    12     4     7    1
    13     7     9    1
    14     9    10   ar
    15    10    11   ar
    16    11    12   ar
    17    12    13   ar
    18    13    14   ar
    19    14    15   ar
    20    15    16   ar
    21    16    17   ar
    22    17    18    1
    23    18    19    1
    24    19    20   ar
    25    20    21   ar
    26    21    22   ar
    27    22    23    1
    28    22    24   ar
    29    24    25   ar
    30     4     5    1
    31     5     6    1
    32    31    32   ar
    33    32    33   ar
    34    35    36   am
    35    36    37    1
    36    37    38    1
    37    38    39    1
    38    39    40    1
    39    40    41    1
    40    33    28   ar
    41    41    36    1
    42     6     1    1
    43    17     9   ar
    44    25    19   ar
    45    16    11   ar
    46     7     8    1
    47    39    42    1
@<TRIPOS>MOLECULE
*****
 42 47 0 0 0
SMALL
GASTEIGER

@<TRIPOS>ATOM
      1 N         143.0634  139.9233  160.0478 N.3     1  UNL1       -0.2723
      2 C         143.8960  138.7766  160.5395 C.3     1  UNL1        0.0738
      3 C         143.6933  138.2432  161.9268 C.3     1  UNL1        0.0369
      4 C         142.6580  138.8566  162.8223 C.3     1  UNL1        0.0745
      5 C         141.8254  140.0034  162.3305 C.3     1  UNL1        0.0369
      6 C         142.0281  140.5367  160.9433 C.3     1  UNL1        0.0738
      7 N         142.4553  138.3234  164.2096 N.pl3   1  UNL1       -0.3058
      8 H         142.5100  137.3548  164.3775 H       1  UNL1        0.1495
      9 C         142.1693  139.2657  165.3410 C.ar    1  UNL1        0.1981
     10 N         143.1640  140.1666  166.0110 N.ar    1  UNL1       -0.2138
     11 C         142.4479  140.9304  167.0852 C.ar    1  UNL1        0.0999
     12 C         142.9189  141.9609  168.0681 C.ar    1  UNL1        0.0207
     13 C         141.9525  142.5625  169.0448 C.ar    1  UNL1        0.0016
     14 C         140.5152  142.1337  169.0387 C.ar    1  UNL1        0.0016
     15 C         140.0441  141.1031  168.0558 C.ar    1  UNL1        0.0188
     16 C         141.0105  140.5015  167.0791 C.ar    1  UNL1        0.0801
     17 N         140.8384  139.4727  166.0011 N.ar    1  UNL1       -0.2956
     18 C         139.5597  138.7736  165.6457 C.3     1  UNL1        0.1354
     19 C         138.9389  138.9856  164.2968 C.ar    1  UNL1        0.0006
     20 C         138.9167  137.8673  163.2973 C.ar    1  UNL1       -0.0001
     21 C         138.2959  138.0791  161.9483 C.ar    1  UNL1        0.0294
     22 C         137.6972  139.4094  161.5989 C.ar    1  UNL1        0.1401
     23 F         137.0764  139.6213  160.2499 F       1  UNL1       -0.2042
     24 C         137.7194  140.5276  162.5984 C.ar    1  UNL1        0.0294
     25 C         138.3402  140.3157  163.9473 C.ar    1  UNL1       -0.0001
     26 C         143.2661  140.4566  158.6605 C.3     1  UNL1        0.0768
     27 C         142.3389  140.0447  157.5557 C.3     1  UNL1        0.0437
     28 C         142.8001  136.0093  155.6185 C.ar    1  UNL1        0.0536
     29 C         141.5833  136.3112  156.4419 C.ar    1  UNL1        0.0042
     30 C         141.4295  137.6564  157.0877 C.ar    1  UNL1       -0.0041
     31 C         142.4926  138.6996  156.9100 C.ar    1  UNL1       -0.0208
     32 C         143.7096  138.3975  156.0866 C.ar    1  UNL1       -0.0041
     33 C         143.8633  137.0524  155.4409 C.ar    1  UNL1        0.0042
     34 O         142.4588  134.4425  153.5744 O.2     1  UNL1       -0.2699
     35 C         142.9539  134.6641  154.9728 C.2     1  UNL1        0.2491
     36 N         143.6027  133.5406  155.7256 N.am    1  UNL1       -0.2732
     37 C         144.0978  133.7622  157.1241 C.3     1  UNL1        0.1108
     38 C         144.7466  132.6387  157.8769 C.3     1  UNL1        0.0904
     39 N         144.9004  131.2935  157.2312 N.3     1  UNL1       -0.2946
     40 C         144.4053  131.0718  155.8327 C.3     1  UNL1        0.0904
     41 C         143.7565  132.1954  155.0799 C.3     1  UNL1        0.1108
     42 H         144.4122  130.6238  157.8260 H       1  UNL1        0.1233
@<TRIPOS>BOND
     1    34    35    2
     2    35    28    1
     3    28    29   ar
     4    29    30   ar
     5    30    31   ar
     6    31    27    1
     7    27    26    1
     8    26     1    1
     9     1     2    1
    10     2     3    1
    11     3     4    1
    12     4     7    1
    13     7     9    1
    14     9    10   ar
    15    10    11   ar
    16    11    12   ar
    17    12    13   ar
    18    13    14   ar
    19    14    15   ar
    20    15    16   ar
    21    16    17   ar
    22    17    18    1
    23    18    19    1
    24    19    20   ar
    25    20    21   ar
    26    21    22   ar
    27    22    23    1
    28    22    24   ar
    29    24    25   ar
    30     4     5    1
    31     5     6    1
    32    31    32   ar
    33    32    33   ar
    34    35    36   am
    35    36    37    1
    36    37    38    1
    37    38    39    1
    38    39    40    1
    39    40    41    1
    40    33    28   ar
    41    41    36    1
    42     6     1    1
    43    17     9   ar
    44    25    19   ar
    45    16    11   ar
    46     7     8    1
    47    39    42    1
