@<TRIPOS>MOLECULE
*****
 29 32 0 0 0
SMALL
GASTEIGER

@<TRIPOS>ATOM
      1 N         139.1641  138.3899  164.3786 N.3     1  UNL1       -0.2727
      2 C         138.2776  138.2349  165.5786 C.3     1  UNL1        0.0724
      3 C         138.5974  138.9687  166.8471 C.3     1  UNL1        0.0220
      4 C         139.8038  139.8575  166.9157 C.3     1  UNL1        0.0329
      5 C         140.6904  140.0124  165.7157 C.3     1  UNL1        0.0220
      6 C         140.3705  139.2786  164.4472 C.3     1  UNL1        0.0724
      7 C         138.9173  139.7025  168.1157 C.3     1  UNL1        0.0898
      8 C         139.2371  140.4363  169.3843 C.2     1  UNL1        0.2307
      9 O         138.3506  140.2813  170.5843 O.2     1  UNL1       -0.2745
     10 N         140.4435  141.3251  169.4528 N.am    1  UNL1       -0.2423
     11 C         140.7634  142.0589  170.7214 C.3     1  UNL1        0.1215
     12 C         141.3301  141.4800  168.2529 C.ar    1  UNL1        0.1333
     13 N         142.5365  142.3688  168.3214 N.ar    1  UNL1       -0.2291
     14 C         143.4231  142.5237  167.1213 C.ar    1  UNL1        0.1003
     15 C         143.1032  141.7899  165.8528 C.ar    1  UNL1        0.0204
     16 C         141.8968  140.9012  165.7843 C.ar    1  UNL1        0.0001
     17 C         141.0102  140.7462  166.9842 C.ar    1  UNL1        0.0098
     18 C         138.8443  137.6561  163.1100 C.3     1  UNL1        0.0722
     19 C         138.6027  140.6290  157.9040 C.2     1  UNL1        0.4049
     20 O         139.5497  140.2777  156.7950 O.2     1  UNL1       -0.2262
     21 N         138.6631  139.8858  159.2055 N.am    1  UNL1       -0.2460
     22 C         137.7161  140.2371  160.3144 C.3     1  UNL1        0.0968
     23 C         137.7764  139.4938  161.6159 C.3     1  UNL1        0.0231
     24 C         138.7839  138.3993  161.8085 C.3     1  UNL1        0.0194
     25 C         139.7309  138.0480  160.6995 C.3     1  UNL1        0.0231
     26 C         139.6705  138.7912  159.3981 C.3     1  UNL1        0.0968
     27 O         137.5952  141.7235  157.7114 O.3     1  UNL1       -0.4345
     28 C         135.6524  140.7679  156.2752 C.3     1  UNL1        0.0513
     29 C         136.7588  141.7625  156.4668 C.3     1  UNL1        0.2102
@<TRIPOS>BOND
     1    28    29    1
     2    29    27    1
     3    27    19    1
     4    19    20    2
     5    19    21   am
     6    21    22    1
     7    22    23    1
     8    23    24    1
     9    24    18    1
    10    18     1    1
    11     1     2    1
    12     2     3    1
    13     3     4    1
    14     4     5    1
    15     5     6    1
    16     4     7    1
    17     7     8    1
    18     8     9    2
    19     8    10   am
    20    10    11    1
    21    10    12    1
    22    12    13   ar
    23    13    14   ar
    24    14    15   ar
    25    15    16   ar
    26    16    17   ar
    27    24    25    1
    28    25    26    1
    29    26    21    1
    30     6     1    1
    31    17    12   ar
    32    17     4    1
@<TRIPOS>MOLECULE
*****
 29 32 0 0 0
SMALL
GASTEIGER

@<TRIPOS>ATOM
      1 N         139.5573  139.7580  162.8339 N.3     1  UNL1       -0.2727
      2 C         139.8964  139.3540  161.4297 C.3     1  UNL1        0.0724
      3 C         140.1006  140.4022  160.3763 C.3     1  UNL1        0.0220
      4 C         139.9656  141.8543  160.7271 C.3     1  UNL1        0.0329
      5 C         139.6265  142.2583  162.1313 C.3     1  UNL1        0.0220
      6 C         139.4223  141.2102  163.1846 C.3     1  UNL1        0.0724
      7 C         140.3048  141.4504  159.3229 C.3     1  UNL1        0.0898
      8 C         140.5090  142.4985  158.2695 C.2     1  UNL1        0.2307
      9 O         140.8482  142.0945  156.8652 O.2     1  UNL1       -0.2745
     10 N         140.3740  143.9507  158.6203 N.am    1  UNL1       -0.2423
     11 C         140.5782  144.9988  157.5668 C.3     1  UNL1        0.1215
     12 C         140.0348  144.3546  160.0244 C.ar    1  UNL1        0.1333
     13 N         139.8998  145.8068  160.3752 N.ar    1  UNL1       -0.2291
     14 C         139.5607  146.2108  161.7795 C.ar    1  UNL1        0.1003
     15 C         139.3565  145.1626  162.8328 C.ar    1  UNL1        0.0204
     16 C         139.4915  143.7105  162.4820 C.ar    1  UNL1        0.0001
     17 C         139.8306  143.3065  161.0779 C.ar    1  UNL1        0.0098
     18 C         139.3531  138.7099  163.8873 C.3     1  UNL1        0.0722
     19 C         139.1538  140.2737  169.6765 C.2     1  UNL1        0.4049
     20 O         137.9637  139.9057  170.5122 O.2     1  UNL1       -0.2262
     21 N         139.2036  139.8827  168.2292 N.am    1  UNL1       -0.2460
     22 C         140.3936  140.2506  167.3935 C.3     1  UNL1        0.0968
     23 C         140.4435  139.8597  165.9462 C.3     1  UNL1        0.0231
     24 C         139.3033  139.1008  165.3346 C.3     1  UNL1        0.0194
     25 C         138.1132  138.7329  166.1704 C.3     1  UNL1        0.0231
     26 C         138.0634  139.1238  167.6176 C.3     1  UNL1        0.0968
     27 O         140.2940  141.0325  170.2880 O.3     1  UNL1       -0.4345
     28 C         140.4589  143.5178  169.5489 C.3     1  UNL1        0.0513
     29 C         140.1430  142.4926  170.5973 C.3     1  UNL1        0.2102
@<TRIPOS>BOND
     1    28    29    1
     2    29    27    1
     3    27    19    1
     4    19    20    2
     5    19    21   am
     6    21    22    1
     7    22    23    1
     8    23    24    1
     9    24    18    1
    10    18     1    1
    11     1     2    1
    12     2     3    1
    13     3     4    1
    14     4     5    1
    15     5     6    1
    16     4     7    1
    17     7     8    1
    18     8     9    2
    19     8    10   am
    20    10    11    1
    21    10    12    1
    22    12    13   ar
    23    13    14   ar
    24    14    15   ar
    25    15    16   ar
    26    16    17   ar
    27    24    25    1
    28    25    26    1
    29    26    21    1
    30     6     1    1
    31    17    12   ar
    32    17     4    1
@<TRIPOS>MOLECULE
*****
 29 32 0 0 0
SMALL
GASTEIGER

@<TRIPOS>ATOM
      1 N         138.6955  139.1212  163.1883 N.3     1  UNL1       -0.2727
      2 C         138.0484  138.5321  161.9701 C.3     1  UNL1        0.0724
      3 C         137.9754  139.3279  160.7007 C.3     1  UNL1        0.0220
      4 C         138.5494  140.7128  160.6496 C.3     1  UNL1        0.0329
      5 C         139.1965  141.3019  161.8679 C.3     1  UNL1        0.0220
      6 C         139.2696  140.5060  163.1373 C.3     1  UNL1        0.0724
      7 C         137.9023  140.1238  159.4313 C.3     1  UNL1        0.0898
      8 C         137.8293  140.9196  158.1619 C.2     1  UNL1        0.2307
      9 O         137.1822  140.3305  156.9436 O.2     1  UNL1       -0.2745
     10 N         138.4033  142.3044  158.1108 N.am    1  UNL1       -0.2423
     11 C         138.3303  143.1003  156.8414 C.3     1  UNL1        0.1215
     12 C         139.0504  142.8935  159.3291 C.ar    1  UNL1        0.1333
     13 N         139.6245  144.2783  159.2780 N.ar    1  UNL1       -0.2291
     14 C         140.2716  144.8674  160.4964 C.ar    1  UNL1        0.1003
     15 C         140.3446  144.0716  161.7658 C.ar    1  UNL1        0.0204
     16 C         139.7706  142.6867  161.8168 C.ar    1  UNL1        0.0001
     17 C         139.1235  142.0977  160.5986 C.ar    1  UNL1        0.0098
     18 C         138.7685  138.3254  164.4578 C.3     1  UNL1        0.0722
     19 C         141.7411  140.4994  169.1946 C.2     1  UNL1        0.4049
     20 O         143.2384  140.4213  169.2408 O.2     1  UNL1       -0.2262
     21 N         140.9980  139.9559  168.0104 N.am    1  UNL1       -0.2460
     22 C         139.5008  140.0339  167.9642 C.3     1  UNL1        0.0968
     23 C         138.7576  139.4904  166.7800 C.3     1  UNL1        0.0231
     24 C         139.5117  138.8689  165.6420 C.3     1  UNL1        0.0194
     25 C         141.0090  138.7909  165.6882 C.3     1  UNL1        0.0231
     26 C         141.7521  139.3343  166.8724 C.3     1  UNL1        0.0968
     27 O         140.9870  141.1209  170.3326 O.3     1  UNL1       -0.4345
     28 C         140.3679  143.5670  169.7134 C.3     1  UNL1        0.0513
     29 C         141.0989  142.5943  170.5906 C.3     1  UNL1        0.2102
@<TRIPOS>BOND
     1    28    29    1
     2    29    27    1
     3    27    19    1
     4    19    20    2
     5    19    21   am
     6    21    22    1
     7    22    23    1
     8    23    24    1
     9    24    18    1
    10    18     1    1
    11     1     2    1
    12     2     3    1
    13     3     4    1
    14     4     5    1
    15     5     6    1
    16     4     7    1
    17     7     8    1
    18     8     9    2
    19     8    10   am
    20    10    11    1
    21    10    12    1
    22    12    13   ar
    23    13    14   ar
    24    14    15   ar
    25    15    16   ar
    26    16    17   ar
    27    24    25    1
    28    25    26    1
    29    26    21    1
    30     6     1    1
    31    17    12   ar
    32    17     4    1
@<TRIPOS>MOLECULE
*****
 29 32 0 0 0
SMALL
GASTEIGER

@<TRIPOS>ATOM
      1 N         142.8064  141.9034  163.9814 N.3     1  UNL1       -0.2727
      2 C         143.5098  142.3527  165.2277 C.3     1  UNL1        0.0724
      3 C         142.9445  142.0080  166.5736 C.3     1  UNL1        0.0220
      4 C         141.6758  141.2140  166.6733 C.3     1  UNL1        0.0329
      5 C         140.9725  140.7647  165.4270 C.3     1  UNL1        0.0220
      6 C         141.5378  141.1094  164.0810 C.3     1  UNL1        0.0724
      7 C         142.3792  141.6633  167.9196 C.3     1  UNL1        0.0898
      8 C         141.8139  141.3186  169.2656 C.2     1  UNL1        0.2307
      9 O         142.5173  141.7679  170.5120 O.2     1  UNL1       -0.2745
     10 N         140.5453  140.5246  169.3652 N.am    1  UNL1       -0.2423
     11 C         139.9800  140.1799  170.7112 C.3     1  UNL1        0.1215
     12 C         139.8419  140.0752  168.1189 C.ar    1  UNL1        0.1333
     13 N         138.5732  139.2812  168.2185 N.ar    1  UNL1       -0.2291
     14 C         137.8698  138.8319  166.9722 C.ar    1  UNL1        0.1003
     15 C         138.4351  139.1766  165.6262 C.ar    1  UNL1        0.0204
     16 C         139.7038  139.9706  165.5266 C.ar    1  UNL1        0.0001
     17 C         140.4072  140.4199  166.7729 C.ar    1  UNL1        0.0098
     18 C         143.3717  142.2481  162.6354 C.3     1  UNL1        0.0722
     19 C         142.4467  138.5935  157.9677 C.2     1  UNL1        0.4049
     20 O         141.3832  138.9175  156.9606 O.2     1  UNL1       -0.2262
     21 N         142.6780  139.5072  159.1346 N.am    1  UNL1       -0.2460
     22 C         143.7414  139.1831  160.1415 C.3     1  UNL1        0.0968
     23 C         143.9727  140.0968  161.3085 C.3     1  UNL1        0.0231
     24 C         143.1405  141.3345  161.4685 C.3     1  UNL1        0.0194
     25 C         142.0770  141.6585  160.4614 C.3     1  UNL1        0.0231
     26 C         141.8458  140.7448  159.2945 C.3     1  UNL1        0.0968
     27 O         143.2789  137.3558  157.8077 O.3     1  UNL1       -0.4345
     28 C         143.8633  135.9041  155.7338 C.3     1  UNL1        0.0513
     29 C         142.8905  136.3161  156.7987 C.3     1  UNL1        0.2102
@<TRIPOS>BOND
     1    28    29    1
     2    29    27    1
     3    27    19    1
     4    19    20    2
     5    19    21   am
     6    21    22    1
     7    22    23    1
     8    23    24    1
     9    24    18    1
    10    18     1    1
    11     1     2    1
    12     2     3    1
    13     3     4    1
    14     4     5    1
    15     5     6    1
    16     4     7    1
    17     7     8    1
    18     8     9    2
    19     8    10   am
    20    10    11    1
    21    10    12    1
    22    12    13   ar
    23    13    14   ar
    24    14    15   ar
    25    15    16   ar
    26    16    17   ar
    27    24    25    1
    28    25    26    1
    29    26    21    1
    30     6     1    1
    31    17    12   ar
    32    17     4    1
@<TRIPOS>MOLECULE
*****
 29 32 0 0 0
SMALL
GASTEIGER

@<TRIPOS>ATOM
      1 N         139.2962  142.8439  164.0343 N.3     1  UNL1       -0.2727
      2 C         139.2164  143.6677  165.2853 C.3     1  UNL1        0.0724
      3 C         139.9710  143.2453  166.5108 C.3     1  UNL1        0.0220
      4 C         140.8055  141.9991  166.4855 C.3     1  UNL1        0.0329
      5 C         140.8853  141.1753  165.2346 C.3     1  UNL1        0.0220
      6 C         140.1307  141.5976  164.0090 C.3     1  UNL1        0.0724
      7 C         140.7257  142.8230  167.7365 C.3     1  UNL1        0.0898
      8 C         141.4803  142.4006  168.9621 C.2     1  UNL1        0.2307
      9 O         141.4005  143.2245  170.2131 O.2     1  UNL1       -0.2745
     10 N         142.3147  141.1544  168.9368 N.am    1  UNL1       -0.2423
     11 C         143.0694  140.7320  170.1624 C.3     1  UNL1        0.1215
     12 C         142.3945  140.3305  167.6858 C.ar    1  UNL1        0.1333
     13 N         143.2290  139.0843  167.6605 N.ar    1  UNL1       -0.2291
     14 C         143.3088  138.2604  166.4095 C.ar    1  UNL1        0.1003
     15 C         142.5541  138.6828  165.1839 C.ar    1  UNL1        0.0204
     16 C         141.7197  139.9290  165.2092 C.ar    1  UNL1        0.0001
     17 C         141.6399  140.7529  166.4602 C.ar    1  UNL1        0.0098
     18 C         138.5416  143.2662  162.8087 C.3     1  UNL1        0.0722
     19 C         141.5221  145.0645  157.9217 C.2     1  UNL1        0.4049
     20 O         142.4940  146.2035  158.0127 O.2     1  UNL1       -0.2262
     21 N         140.7770  144.6150  159.1434 N.am    1  UNL1       -0.2460
     22 C         139.8052  143.4761  159.0524 C.3     1  UNL1        0.0968
     23 C         139.0600  143.0264  160.2742 C.3     1  UNL1        0.0231
     24 C         139.2867  143.7158  161.5869 C.3     1  UNL1        0.0194
     25 C         140.2586  144.8548  161.6779 C.3     1  UNL1        0.0231
     26 C         141.0037  145.3043  160.4562 C.3     1  UNL1        0.0968
     27 O         141.2954  144.3752  156.6089 O.3     1  UNL1       -0.4345
     28 C         139.5259  146.1621  155.9562 C.3     1  UNL1        0.0513
     29 C         140.3838  144.9882  155.5875 C.3     1  UNL1        0.2102
@<TRIPOS>BOND
     1    28    29    1
     2    29    27    1
     3    27    19    1
     4    19    20    2
     5    19    21   am
     6    21    22    1
     7    22    23    1
     8    23    24    1
     9    24    18    1
    10    18     1    1
    11     1     2    1
    12     2     3    1
    13     3     4    1
    14     4     5    1
    15     5     6    1
    16     4     7    1
    17     7     8    1
    18     8     9    2
    19     8    10   am
    20    10    11    1
    21    10    12    1
    22    12    13   ar
    23    13    14   ar
    24    14    15   ar
    25    15    16   ar
    26    16    17   ar
    27    24    25    1
    28    25    26    1
    29    26    21    1
    30     6     1    1
    31    17    12   ar
    32    17     4    1
@<TRIPOS>MOLECULE
*****
 29 32 0 0 0
SMALL
GASTEIGER

@<TRIPOS>ATOM
      1 N         143.2583  140.8948  164.2398 N.3     1  UNL1       -0.2727
      2 C         143.6158  141.6753  165.4699 C.3     1  UNL1        0.0724
      3 C         142.7376  141.6055  166.6839 C.3     1  UNL1        0.0220
      4 C         141.5020  140.7552  166.6679 C.3     1  UNL1        0.0329
      5 C         141.1445  139.9747  165.4379 C.3     1  UNL1        0.0220
      6 C         142.0227  140.0445  164.2239 C.3     1  UNL1        0.0724
      7 C         141.8594  141.5357  167.8980 C.3     1  UNL1        0.0898
      8 C         140.9813  141.4659  169.1121 C.2     1  UNL1        0.2307
      9 O         141.3387  142.2464  170.3422 O.2     1  UNL1       -0.2745
     10 N         139.7457  140.6156  169.0961 N.am    1  UNL1       -0.2423
     11 C         138.8675  140.5459  170.3102 C.3     1  UNL1        0.1215
     12 C         139.3882  139.8351  167.8660 C.ar    1  UNL1        0.1333
     13 N         138.1526  138.9849  167.8500 N.ar    1  UNL1       -0.2291
     14 C         137.7951  138.2043  166.6199 C.ar    1  UNL1        0.1003
     15 C         138.6733  138.2741  165.4059 C.ar    1  UNL1        0.0204
     16 C         139.9089  139.1244  165.4219 C.ar    1  UNL1        0.0001
     17 C         140.2664  139.9049  166.6519 C.ar    1  UNL1        0.0098
     18 C         144.1365  140.9646  163.0257 C.3     1  UNL1        0.0722
     19 C         142.4947  144.3108  158.3239 C.2     1  UNL1        0.4049
     20 O         142.7974  143.8459  156.9302 O.2     1  UNL1       -0.2262
     21 N         142.9052  143.4742  159.4994 N.am    1  UNL1       -0.2460
     22 C         142.6025  143.9392  160.8930 C.3     1  UNL1        0.0968
     23 C         143.0129  143.1026  162.0685 C.3     1  UNL1        0.0231
     24 C         143.7261  141.8011  161.8503 C.3     1  UNL1        0.0194
     25 C         144.0287  141.3362  160.4566 C.3     1  UNL1        0.0231
     26 C         143.6183  142.1728  159.2812 C.3     1  UNL1        0.0968
     27 O         141.7816  145.6123  158.5421 O.3     1  UNL1       -0.4345
     28 C         140.2368  146.2376  156.5490 C.3     1  UNL1        0.0513
     29 C         140.4065  145.8176  157.9789 C.3     1  UNL1        0.2102
@<TRIPOS>BOND
     1    28    29    1
     2    29    27    1
     3    27    19    1
     4    19    20    2
     5    19    21   am
     6    21    22    1
     7    22    23    1
     8    23    24    1
     9    24    18    1
    10    18     1    1
    11     1     2    1
    12     2     3    1
    13     3     4    1
    14     4     5    1
    15     5     6    1
    16     4     7    1
    17     7     8    1
    18     8     9    2
    19     8    10   am
    20    10    11    1
    21    10    12    1
    22    12    13   ar
    23    13    14   ar
    24    14    15   ar
    25    15    16   ar
    26    16    17   ar
    27    24    25    1
    28    25    26    1
    29    26    21    1
    30     6     1    1
    31    17    12   ar
    32    17     4    1
@<TRIPOS>MOLECULE
*****
 29 32 0 0 0
SMALL
GASTEIGER

@<TRIPOS>ATOM
      1 N         143.2347  140.3627  164.3076 N.3     1  UNL1       -0.2727
      2 C         141.9443  139.6054  164.2013 C.3     1  UNL1        0.0724
      3 C         140.9910  139.5819  165.3591 C.3     1  UNL1        0.0220
      4 C         141.3282  140.3156  166.6232 C.3     1  UNL1        0.0329
      5 C         142.6186  141.0728  166.7295 C.3     1  UNL1        0.0220
      6 C         143.5718  141.0964  165.5717 C.3     1  UNL1        0.0724
      7 C         140.0377  139.5583  166.5170 C.3     1  UNL1        0.0898
      8 C         139.0844  139.5347  167.6748 C.2     1  UNL1        0.2307
      9 O         137.7939  138.7774  167.5686 O.2     1  UNL1       -0.2745
     10 N         139.4215  140.2684  168.9390 N.am    1  UNL1       -0.2423
     11 C         138.4681  140.2448  170.0968 C.3     1  UNL1        0.1215
     12 C         140.7119  141.0257  169.0453 C.ar    1  UNL1        0.1333
     13 N         141.0490  141.7594  170.3094 N.ar    1  UNL1       -0.2291
     14 C         142.3395  142.5167  170.4156 C.ar    1  UNL1        0.1003
     15 C         143.2928  142.5402  169.2578 C.ar    1  UNL1        0.0204
     16 C         142.9557  141.8065  167.9937 C.ar    1  UNL1        0.0001
     17 C         141.6653  141.0493  167.8874 C.ar    1  UNL1        0.0098
     18 C         144.1881  140.3863  163.1497 C.3     1  UNL1        0.0722
     19 C         142.6384  137.8543  157.9356 C.2     1  UNL1        0.4049
     20 O         142.1725  138.7103  156.7952 O.2     1  UNL1       -0.2262
     21 N         143.0258  138.4873  159.2391 N.am    1  UNL1       -0.2460
     22 C         143.4917  137.6313  160.3793 C.3     1  UNL1        0.0968
     23 C         143.8792  138.2643  161.6829 C.3     1  UNL1        0.0231
     24 C         143.8007  139.7533  161.8462 C.3     1  UNL1        0.0194
     25 C         143.3348  140.6093  160.7059 C.3     1  UNL1        0.0231
     26 C         142.9474  139.9763  159.4023 C.3     1  UNL1        0.0968
     27 O         142.7169  136.3653  157.7723 O.3     1  UNL1       -0.4345
     28 C         142.3898  134.4751  156.0200 C.3     1  UNL1        0.0513
     29 C         143.0211  135.7732  156.4280 C.3     1  UNL1        0.2102
@<TRIPOS>BOND
     1    28    29    1
     2    29    27    1
     3    27    19    1
     4    19    20    2
     5    19    21   am
     6    21    22    1
     7    22    23    1
     8    23    24    1
     9    24    18    1
    10    18     1    1
    11     1     2    1
    12     2     3    1
    13     3     4    1
    14     4     5    1
    15     5     6    1
    16     4     7    1
    17     7     8    1
    18     8     9    2
    19     8    10   am
    20    10    11    1
    21    10    12    1
    22    12    13   ar
    23    13    14   ar
    24    14    15   ar
    25    15    16   ar
    26    16    17   ar
    27    24    25    1
    28    25    26    1
    29    26    21    1
    30     6     1    1
    31    17    12   ar
    32    17     4    1
@<TRIPOS>MOLECULE
*****
 29 32 0 0 0
SMALL
GASTEIGER

@<TRIPOS>ATOM
      1 N         139.3392  138.7317  164.3842 N.3     1  UNL1       -0.2727
      2 C         138.3728  138.4677  165.5006 C.3     1  UNL1        0.0724
      3 C         138.6116  139.0642  166.8560 C.3     1  UNL1        0.0220
      4 C         139.8167  139.9248  167.0949 C.3     1  UNL1        0.0329
      5 C         140.7830  140.1889  165.9785 C.3     1  UNL1        0.0220
      6 C         140.5443  139.5923  164.6231 C.3     1  UNL1        0.0724
      7 C         138.8503  139.6608  168.2114 C.3     1  UNL1        0.0898
      8 C         139.0891  140.2574  169.5668 C.2     1  UNL1        0.2307
      9 O         138.1227  139.9934  170.6833 O.2     1  UNL1       -0.2745
     10 N         140.2942  141.1180  169.8057 N.am    1  UNL1       -0.2423
     11 C         140.5329  141.7146  171.1611 C.3     1  UNL1        0.1215
     12 C         141.2605  141.3820  168.6893 C.ar    1  UNL1        0.1333
     13 N         142.4656  142.2426  168.9282 N.ar    1  UNL1       -0.2291
     14 C         143.4320  142.5066  167.8117 C.ar    1  UNL1        0.1003
     15 C         143.1932  141.9101  166.4563 C.ar    1  UNL1        0.0204
     16 C         141.9881  141.0495  166.2174 C.ar    1  UNL1        0.0001
     17 C         141.0218  140.7854  167.3338 C.ar    1  UNL1        0.0098
     18 C         139.1004  138.1351  163.0287 C.3     1  UNL1        0.0722
     19 C         142.4445  139.8664  158.3576 C.2     1  UNL1        0.4049
     20 O         143.7250  139.1500  158.0454 O.2     1  UNL1       -0.2262
     21 N         141.6085  139.4335  159.5254 N.am    1  UNL1       -0.2460
     22 C         140.3282  140.1499  159.8376 C.3     1  UNL1        0.0968
     23 C         139.4921  139.7171  161.0054 C.3     1  UNL1        0.0231
     24 C         139.9364  138.5679  161.8610 C.3     1  UNL1        0.0194
     25 C         141.2169  137.8516  161.5487 C.3     1  UNL1        0.0231
     26 C         142.0529  138.2844  160.3810 C.3     1  UNL1        0.0968
     27 O         142.0002  141.0155  157.5021 O.3     1  UNL1       -0.4345
     28 C         143.7581  142.7281  158.3547 C.3     1  UNL1        0.0513
     29 C         142.9345  142.1589  157.2377 C.3     1  UNL1        0.2102
@<TRIPOS>BOND
     1    28    29    1
     2    29    27    1
     3    27    19    1
     4    19    20    2
     5    19    21   am
     6    21    22    1
     7    22    23    1
     8    23    24    1
     9    24    18    1
    10    18     1    1
    11     1     2    1
    12     2     3    1
    13     3     4    1
    14     4     5    1
    15     5     6    1
    16     4     7    1
    17     7     8    1
    18     8     9    2
    19     8    10   am
    20    10    11    1
    21    10    12    1
    22    12    13   ar
    23    13    14   ar
    24    14    15   ar
    25    15    16   ar
    26    16    17   ar
    27    24    25    1
    28    25    26    1
    29    26    21    1
    30     6     1    1
    31    17    12   ar
    32    17     4    1
@<TRIPOS>MOLECULE
*****
 29 32 0 0 0
SMALL
GASTEIGER

@<TRIPOS>ATOM
      1 N         140.9142  143.3830  163.5936 N.3     1  UNL1       -0.2727
      2 C         140.1545  143.8221  164.8102 C.3     1  UNL1        0.0724
      3 C         140.3013  143.0683  166.0986 C.3     1  UNL1        0.0220
      4 C         141.2077  141.8753  166.1705 C.3     1  UNL1        0.0329
      5 C         141.9674  141.4361  164.9539 C.3     1  UNL1        0.0220
      6 C         141.8206  142.1900  163.6655 C.3     1  UNL1        0.0724
      7 C         140.4481  142.3144  167.3871 C.3     1  UNL1        0.0898
      8 C         140.5949  141.5605  168.6756 C.2     1  UNL1        0.2307
      9 O         139.8352  141.9996  169.8922 O.2     1  UNL1       -0.2745
     10 N         141.5013  140.3675  168.7474 N.am    1  UNL1       -0.2423
     11 C         141.6480  139.6136  170.0359 C.3     1  UNL1        0.1215
     12 C         142.2609  139.9284  167.5308 C.ar    1  UNL1        0.1333
     13 N         143.1673  138.7354  167.6027 N.ar    1  UNL1       -0.2291
     14 C         143.9270  138.2963  166.3860 C.ar    1  UNL1        0.1003
     15 C         143.7802  139.0501  165.0976 C.ar    1  UNL1        0.0204
     16 C         142.8738  140.2431  165.0258 C.ar    1  UNL1        0.0001
     17 C         142.1141  140.6823  166.2423 C.ar    1  UNL1        0.0098
     18 C         140.7674  144.1369  162.3051 C.3     1  UNL1        0.0722
     19 C         137.9055  141.6245  157.6687 C.2     1  UNL1        0.4049
     20 O         137.0617  140.4026  157.8810 O.2     1  UNL1       -0.2262
     21 N         138.6209  142.2526  158.8278 N.am    1  UNL1       -0.2460
     22 C         139.4647  143.4744  158.6154 C.3     1  UNL1        0.0968
     23 C         140.1802  144.1026  159.7745 C.3     1  UNL1        0.0231
     24 C         140.0519  143.5088  161.1460 C.3     1  UNL1        0.0194
     25 C         139.2081  142.2869  161.3584 C.3     1  UNL1        0.0231
     26 C         138.4927  141.6588  160.1993 C.3     1  UNL1        0.0968
     27 O         138.0337  142.2183  156.2972 O.3     1  UNL1       -0.4345
     28 C         135.8348  142.3922  154.9244 C.3     1  UNL1        0.0513
     29 C         136.9179  143.0455  155.7307 C.3     1  UNL1        0.2102
@<TRIPOS>BOND
     1    28    29    1
     2    29    27    1
     3    27    19    1
     4    19    20    2
     5    19    21   am
     6    21    22    1
     7    22    23    1
     8    23    24    1
     9    24    18    1
    10    18     1    1
    11     1     2    1
    12     2     3    1
    13     3     4    1
    14     4     5    1
    15     5     6    1
    16     4     7    1
    17     7     8    1
    18     8     9    2
    19     8    10   am
    20    10    11    1
    21    10    12    1
    22    12    13   ar
    23    13    14   ar
    24    14    15   ar
    25    15    16   ar
    26    16    17   ar
    27    24    25    1
    28    25    26    1
    29    26    21    1
    30     6     1    1
    31    17    12   ar
    32    17     4    1
