@<TRIPOS>MOLECULE
*****
 37 41 0 0 0
SMALL
GASTEIGER

@<TRIPOS>ATOM
      1 C         141.8091  141.4918  163.5469 C.3     1  UNL1        0.1628
      2 N         141.5908  140.4298  162.5103 N.ar    1  UNL1       -0.3047
      3 C         140.6620  139.2581  162.6304 C.ar    1  UNL1        0.1441
      4 N         140.7602  138.4573  161.3660 N.ar    1  UNL1       -0.2267
      5 C         141.7497  139.1339  160.4643 C.ar    1  UNL1        0.1010
      6 C         142.2495  138.7975  159.0907 C.ar    1  UNL1        0.0526
      7 C         143.2628  139.6802  158.4243 C.ar    1  UNL1        0.1690
      8 F         143.7627  139.3438  157.0506 F       1  UNL1       -0.2017
      9 C         143.7762  140.8993  159.1315 C.ar    1  UNL1        0.1689
     10 F         144.7895  141.7821  158.4651 F       1  UNL1       -0.2017
     11 C         143.2763  141.2358  160.5051 C.ar    1  UNL1        0.0507
     12 C         142.2630  140.3531  161.1715 C.ar    1  UNL1        0.0816
     13 C         139.7883  138.9427  163.8083 C.ar    1  UNL1        0.0342
     14 C         138.8760  139.9935  164.3681 C.ar    1  UNL1        0.0039
     15 C         138.0023  139.6781  165.5459 C.ar    1  UNL1        0.0115
     16 C         138.0411  138.3119  166.1640 C.ar    1  UNL1        0.0577
     17 CL        137.1675  137.9965  167.3418 Cl      1  UNL1       -0.0822
     18 C         138.9535  137.2611  165.6042 C.ar    1  UNL1        0.0115
     19 C         139.8271  137.5766  164.4263 C.ar    1  UNL1        0.0039
     20 C         141.4734  142.9208  163.2388 C.3     1  UNL1        0.0297
     21 C         140.3750  143.2409  162.2686 C.3     1  UNL1        0.0024
     22 C         140.0392  144.6700  161.9606 C.3     1  UNL1        0.0001
     23 C         140.8018  145.7791  162.6227 C.3     1  UNL1        0.0000
     24 C         141.9002  145.4591  163.5928 C.3     1  UNL1        0.0001
     25 C         142.2360  144.0300  163.9009 C.3     1  UNL1        0.0024
     26 O         143.6764  140.5734  165.3624 O.2     1  UNL1       -0.2731
     27 C         142.3632  141.1247  164.8916 C.2     1  UNL1        0.2431
     28 N         141.5226  141.2977  166.1219 N.am    1  UNL1       -0.3044
     29 H         140.6073  141.6523  166.0468 H       1  UNL1        0.1494
     30 C         142.0768  140.9306  167.4665 C.3     1  UNL1        0.0718
     31 C         142.8205  141.9517  168.2754 C.3     1  UNL1        0.0220
     32 C         143.3747  141.5846  169.6201 C.3     1  UNL1        0.0309
     33 C         143.1851  140.1965  170.1559 C.3     1  UNL1        0.1106
     34 O         143.7393  139.8293  171.5006 O.3     1  UNL1       -0.3845
     35 C         142.4414  139.1754  169.3470 C.3     1  UNL1        0.0309
     36 C         141.8872  139.5424  168.0023 C.3     1  UNL1        0.0220
     37 H         143.5302  138.9022  171.6942 H       1  UNL1        0.2103
@<TRIPOS>BOND
     1    26    27    2
     2    27    28   am
     3    30    28    1
     4    30    31    1
     5    31    32    1
     6    32    33    1
     7    33    34    1
     8    33    35    1
     9    35    36    1
    10    27     1    1
    11     1    20    1
    12    20    21    1
    13    21    22    1
    14    22    23    1
    15    23    24    1
    16    24    25    1
    17     1     2    1
    18     2     3   ar
    19     3    13    1
    20    13    14   ar
    21    14    15   ar
    22    15    16   ar
    23    16    17    1
    24    16    18   ar
    25    18    19   ar
    26     3     4   ar
    27     4     5   ar
    28     5     6   ar
    29     6     7   ar
    30     7     8    1
    31     7     9   ar
    32     9    10    1
    33     9    11   ar
    34    11    12   ar
    35    36    30    1
    36    25    20    1
    37    12     2   ar
    38    19    13   ar
    39    12     5   ar
    40    28    29    1
    41    34    37    1
@<TRIPOS>MOLECULE
*****
 37 41 0 0 0
SMALL
GASTEIGER

@<TRIPOS>ATOM
      1 C         141.5142  141.8938  164.0640 C.3     1  UNL1        0.1628
      2 N         141.9833  140.8627  165.0473 N.ar    1  UNL1       -0.3047
      3 C         142.4656  139.4820  164.7144 C.ar    1  UNL1        0.1441
      4 N         142.8327  138.7974  165.9976 N.ar    1  UNL1       -0.2267
      5 C         142.5773  139.7550  167.1235 C.ar    1  UNL1        0.1010
      6 C         142.7549  139.6296  168.6077 C.ar    1  UNL1        0.0526
      7 C         142.4074  140.7806  169.5045 C.ar    1  UNL1        0.1690
      8 F         142.5850  140.6552  170.9887 F       1  UNL1       -0.2017
      9 C         141.8824  142.0571  168.9172 C.ar    1  UNL1        0.1689
     10 F         141.5350  143.2082  169.8141 F       1  UNL1       -0.2017
     11 C         141.7048  142.1825  167.4331 C.ar    1  UNL1        0.0507
     12 C         142.0522  141.0315  166.5362 C.ar    1  UNL1        0.0816
     13 C         142.5637  138.8898  163.3398 C.ar    1  UNL1        0.0342
     14 C         141.3165  138.5499  162.5789 C.ar    1  UNL1        0.0039
     15 C         141.4146  137.9578  161.2042 C.ar    1  UNL1        0.0115
     16 C         142.7598  137.7055  160.5904 C.ar    1  UNL1        0.0577
     17 CL        142.8578  137.1134  159.2157 Cl      1  UNL1       -0.0822
     18 C         144.0069  138.0454  161.3513 C.ar    1  UNL1        0.0115
     19 C         143.9089  138.6376  162.7260 C.ar    1  UNL1        0.0039
     20 C         140.2470  142.6538  164.3213 C.3     1  UNL1        0.0297
     21 C         138.9206  141.9638  164.1996 C.3     1  UNL1        0.0024
     22 C         137.6533  142.7238  164.4568 C.3     1  UNL1        0.0001
     23 C         137.7123  144.1740  164.8358 C.3     1  UNL1        0.0000
     24 C         139.0385  144.8640  164.9575 C.3     1  UNL1        0.0001
     25 C         140.3059  144.1040  164.7002 C.3     1  UNL1        0.0024
     26 O         143.6883  142.7046  162.5665 O.2     1  UNL1       -0.2731
     27 C         142.3126  142.1648  162.8232 C.2     1  UNL1        0.2431
     28 N         141.7230  141.8770  161.4743 N.am    1  UNL1       -0.3044
     29 H         140.8122  141.5102  161.4032 H       1  UNL1        0.1494
     30 C         142.5214  142.1480  160.2337 C.3     1  UNL1        0.0718
     31 C         142.3394  143.4389  159.4919 C.3     1  UNL1        0.0220
     32 C         143.1377  143.7100  158.2512 C.3     1  UNL1        0.0309
     33 C         144.1180  142.6901  157.7523 C.3     1  UNL1        0.1106
     34 O         144.9164  142.9611  156.5117 O.3     1  UNL1       -0.3845
     35 C         144.3000  141.3992  158.4942 C.3     1  UNL1        0.0309
     36 C         143.5017  141.1281  159.7349 C.3     1  UNL1        0.0220
     37 H         145.4976  142.2061  156.3299 H       1  UNL1        0.2103
@<TRIPOS>BOND
     1    26    27    2
     2    27    28   am
     3    30    28    1
     4    30    31    1
     5    31    32    1
     6    32    33    1
     7    33    34    1
     8    33    35    1
     9    35    36    1
    10    27     1    1
    11     1    20    1
    12    20    21    1
    13    21    22    1
    14    22    23    1
    15    23    24    1
    16    24    25    1
    17     1     2    1
    18     2     3   ar
    19     3    13    1
    20    13    14   ar
    21    14    15   ar
    22    15    16   ar
    23    16    17    1
    24    16    18   ar
    25    18    19   ar
    26     3     4   ar
    27     4     5   ar
    28     5     6   ar
    29     6     7   ar
    30     7     8    1
    31     7     9   ar
    32     9    10    1
    33     9    11   ar
    34    11    12   ar
    35    36    30    1
    36    25    20    1
    37    12     2   ar
    38    19    13   ar
    39    12     5   ar
    40    28    29    1
    41    34    37    1
@<TRIPOS>MOLECULE
*****
 37 41 0 0 0
SMALL
GASTEIGER

@<TRIPOS>ATOM
      1 C         140.4180  140.3012  160.0546 C.3     1  UNL1        0.1628
      2 N         141.3511  139.3503  159.3654 N.ar    1  UNL1       -0.3047
      3 C         142.7932  139.1242  159.7108 C.ar    1  UNL1        0.1441
      4 N         143.3392  138.0926  158.7687 N.ar    1  UNL1       -0.2267
      5 C         142.2346  137.6811  157.8410 C.ar    1  UNL1        0.1010
      6 C         142.1889  136.6990  156.7082 C.ar    1  UNL1        0.0526
      7 C         140.9145  136.4942  155.9442 C.ar    1  UNL1        0.1690
      8 F         140.8687  135.5121  154.8112 F       1  UNL1       -0.2017
      9 C         139.6857  137.2715  156.3130 C.ar    1  UNL1        0.1689
     10 F         138.4112  137.0667  155.5489 F       1  UNL1       -0.2017
     11 C         139.7314  138.2536  157.4458 C.ar    1  UNL1        0.0507
     12 C         141.0059  138.4584  158.2099 C.ar    1  UNL1        0.0816
     13 C         143.5554  139.8095  160.8060 C.ar    1  UNL1        0.0342
     14 C         143.8673  139.0747  162.0759 C.ar    1  UNL1        0.0039
     15 C         144.6295  139.7599  163.1711 C.ar    1  UNL1        0.0115
     16 C         145.0799  141.1800  162.9964 C.ar    1  UNL1        0.0577
     17 CL        145.8421  141.8652  164.0916 Cl      1  UNL1       -0.0822
     18 C         144.7680  141.9148  161.7264 C.ar    1  UNL1        0.0115
     19 C         144.0058  141.2295  160.6313 C.ar    1  UNL1        0.0039
     20 C         140.2481  141.6967  159.5314 C.3     1  UNL1        0.0297
     21 C         139.6475  141.9213  158.1753 C.3     1  UNL1        0.0024
     22 C         139.4775  143.3167  157.6521 C.3     1  UNL1        0.0001
     23 C         139.9081  144.4876  158.4850 C.3     1  UNL1        0.0000
     24 C         140.5086  144.2630  159.8410 C.3     1  UNL1        0.0001
     25 C         140.6786  142.8676  160.3642 C.3     1  UNL1        0.0024
     26 O         138.2232  139.4873  161.5197 O.2     1  UNL1       -0.2731
     27 C         139.6549  139.8567  161.2671 C.2     1  UNL1        0.2431
     28 N         140.3587  139.7076  162.5833 N.am    1  UNL1       -0.3044
     29 H         141.3215  139.9014  162.6514 H       1  UNL1        0.1494
     30 C         139.5955  139.2631  163.7957 C.3     1  UNL1        0.0718
     31 C         139.5122  137.8047  164.1364 C.3     1  UNL1        0.0220
     32 C         138.7490  137.3601  165.3489 C.3     1  UNL1        0.0309
     33 C         138.0691  138.3739  166.2205 C.3     1  UNL1        0.1106
     34 O         137.3059  137.9295  167.4329 O.3     1  UNL1       -0.3845
     35 C         138.1524  139.8324  165.8798 C.3     1  UNL1        0.0309
     36 C         138.9156  140.2769  164.6674 C.3     1  UNL1        0.0220
     37 H         136.9314  138.7039  167.8811 H       1  UNL1        0.2103
@<TRIPOS>BOND
     1    26    27    2
     2    27    28   am
     3    30    28    1
     4    30    31    1
     5    31    32    1
     6    32    33    1
     7    33    34    1
     8    33    35    1
     9    35    36    1
    10    27     1    1
    11     1    20    1
    12    20    21    1
    13    21    22    1
    14    22    23    1
    15    23    24    1
    16    24    25    1
    17     1     2    1
    18     2     3   ar
    19     3    13    1
    20    13    14   ar
    21    14    15   ar
    22    15    16   ar
    23    16    17    1
    24    16    18   ar
    25    18    19   ar
    26     3     4   ar
    27     4     5   ar
    28     5     6   ar
    29     6     7   ar
    30     7     8    1
    31     7     9   ar
    32     9    10    1
    33     9    11   ar
    34    11    12   ar
    35    36    30    1
    36    25    20    1
    37    12     2   ar
    38    19    13   ar
    39    12     5   ar
    40    28    29    1
    41    34    37    1
@<TRIPOS>MOLECULE
*****
 37 41 0 0 0
SMALL
GASTEIGER

@<TRIPOS>ATOM
      1 C         140.6741  141.0147  161.7123 C.3     1  UNL1        0.1628
      2 N         140.8372  142.5026  161.6136 N.ar    1  UNL1       -0.3047
      3 C         141.3079  143.4125  162.7092 C.ar    1  UNL1        0.1441
      4 N         141.3197  144.8140  162.1746 N.ar    1  UNL1       -0.2267
      5 C         140.8562  144.7702  160.7487 C.ar    1  UNL1        0.1010
      6 C         140.6672  145.8465  159.7212 C.ar    1  UNL1        0.0526
      7 C         140.1800  145.4942  158.3470 C.ar    1  UNL1        0.1690
      8 F         139.9910  146.5706  157.3194 F       1  UNL1       -0.2017
      9 C         139.8817  144.0657  158.0003 C.ar    1  UNL1        0.1689
     10 F         139.3945  143.7134  156.6260 F       1  UNL1       -0.2017
     11 C         140.0707  142.9893  159.0278 C.ar    1  UNL1        0.0507
     12 C         140.5580  143.3416  160.4020 C.ar    1  UNL1        0.0816
     13 C         141.6984  142.9945  164.0958 C.ar    1  UNL1        0.0342
     14 C         143.0585  142.4152  164.3495 C.ar    1  UNL1        0.0039
     15 C         143.4489  141.9972  165.7362 C.ar    1  UNL1        0.0115
     16 C         142.4792  142.1584  166.8691 C.ar    1  UNL1        0.0577
     17 CL        142.8697  141.7403  168.2558 Cl      1  UNL1       -0.0822
     18 C         141.1191  142.7377  166.6154 C.ar    1  UNL1        0.0115
     19 C         140.7287  143.1557  165.2288 C.ar    1  UNL1        0.0039
     20 C         141.4275  140.1141  160.7790 C.3     1  UNL1        0.0297
     21 C         142.9241  140.0429  160.8503 C.3     1  UNL1        0.0024
     22 C         143.6776  139.1422  159.9170 C.3     1  UNL1        0.0001
     23 C         142.9343  138.3127  158.9122 C.3     1  UNL1        0.0000
     24 C         141.4377  138.3839  158.8408 C.3     1  UNL1        0.0001
     25 C         140.6843  139.2846  159.7742 C.3     1  UNL1        0.0024
     26 O         138.2684  140.4002  162.9211 O.2     1  UNL1       -0.2731
     27 C         139.7577  140.4275  162.7446 C.2     1  UNL1        0.2431
     28 N         140.3261  139.6755  163.9114 N.am    1  UNL1       -0.3044
     29 H         141.3006  139.5674  163.9998 H       1  UNL1        0.1494
     30 C         139.4097  139.0883  164.9435 C.3     1  UNL1        0.0718
     31 C         138.9192  139.9356  166.0799 C.3     1  UNL1        0.0220
     32 C         138.0027  139.3485  167.1121 C.3     1  UNL1        0.0309
     33 C         137.5767  137.9140  167.0078 C.3     1  UNL1        0.1106
     34 O         136.6602  137.3269  168.0399 O.3     1  UNL1       -0.3845
     35 C         138.0671  137.0668  165.8713 C.3     1  UNL1        0.0309
     36 C         138.9836  137.6539  164.8392 C.3     1  UNL1        0.0220
     37 H         136.4853  136.3971  167.8256 H       1  UNL1        0.2103
@<TRIPOS>BOND
     1    26    27    2
     2    27    28   am
     3    30    28    1
     4    30    31    1
     5    31    32    1
     6    32    33    1
     7    33    34    1
     8    33    35    1
     9    35    36    1
    10    27     1    1
    11     1    20    1
    12    20    21    1
    13    21    22    1
    14    22    23    1
    15    23    24    1
    16    24    25    1
    17     1     2    1
    18     2     3   ar
    19     3    13    1
    20    13    14   ar
    21    14    15   ar
    22    15    16   ar
    23    16    17    1
    24    16    18   ar
    25    18    19   ar
    26     3     4   ar
    27     4     5   ar
    28     5     6   ar
    29     6     7   ar
    30     7     8    1
    31     7     9   ar
    32     9    10    1
    33     9    11   ar
    34    11    12   ar
    35    36    30    1
    36    25    20    1
    37    12     2   ar
    38    19    13   ar
    39    12     5   ar
    40    28    29    1
    41    34    37    1
@<TRIPOS>MOLECULE
*****
 37 41 0 0 0
SMALL
GASTEIGER

@<TRIPOS>ATOM
      1 C         141.4167  140.9358  164.8679 C.3     1  UNL1        0.1628
      2 N         140.9436  141.7141  166.0598 N.ar    1  UNL1       -0.3047
      3 C         140.3471  143.0901  166.0341 C.ar    1  UNL1        0.1441
      4 N         140.0188  143.4793  167.4451 N.ar    1  UNL1       -0.2267
      5 C         140.4123  142.3438  168.3427 C.ar    1  UNL1        0.1010
      6 C         140.3241  142.1623  169.8290 C.ar    1  UNL1        0.0526
      7 C         140.8074  140.8899  170.4592 C.ar    1  UNL1        0.1690
      8 F         140.7192  140.7083  171.9456 F       1  UNL1       -0.2017
      9 C         141.3790  139.7989  169.6030 C.ar    1  UNL1        0.1689
     10 F         141.8623  138.5263  170.2333 F       1  UNL1       -0.2017
     11 C         141.4672  139.9803  168.1167 C.ar    1  UNL1        0.0507
     12 C         140.9839  141.2528  167.4865 C.ar    1  UNL1        0.0816
     13 C         140.1190  143.9296  164.8121 C.ar    1  UNL1        0.0342
     14 C         138.7327  144.0944  164.2635 C.ar    1  UNL1        0.0039
     15 C         138.5046  144.9339  163.0415 C.ar    1  UNL1        0.0115
     16 C         139.6627  145.6085  162.3681 C.ar    1  UNL1        0.0577
     17 CL        139.4346  146.4480  161.1461 Cl      1  UNL1       -0.0822
     18 C         141.0490  145.4436  162.9167 C.ar    1  UNL1        0.0115
     19 C         141.2771  144.6042  164.1387 C.ar    1  UNL1        0.0039
     20 C         142.8028  140.3631  164.8482 C.3     1  UNL1        0.0297
     21 C         143.9150  141.1135  164.1772 C.3     1  UNL1        0.0024
     22 C         145.3011  140.5407  164.1575 C.3     1  UNL1        0.0001
     23 C         145.5752  139.2175  164.8087 C.3     1  UNL1        0.0000
     24 C         144.4631  138.4671  165.4795 C.3     1  UNL1        0.0001
     25 C         143.0769  139.0399  165.4993 C.3     1  UNL1        0.0024
     26 O         139.1462  140.1145  163.5275 O.2     1  UNL1       -0.2731
     27 C         140.5035  140.7304  163.6956 C.2     1  UNL1        0.2431
     28 N         140.9175  141.1973  162.3316 N.am    1  UNL1       -0.3044
     29 H         141.7885  141.6386  162.2057 H       1  UNL1        0.1494
     30 C         140.0044  140.9919  161.1595 C.3     1  UNL1        0.0718
     31 C         139.1736  142.1310  160.6473 C.3     1  UNL1        0.0220
     32 C         138.2604  141.9256  159.4751 C.3     1  UNL1        0.0309
     33 C         138.1780  140.5811  158.8151 C.3     1  UNL1        0.1106
     34 O         137.2649  140.3756  157.6430 O.3     1  UNL1       -0.3845
     35 C         139.0088  139.4420  159.3274 C.3     1  UNL1        0.0309
     36 C         139.9220  139.6474  160.4995 C.3     1  UNL1        0.0220
     37 H         137.3315  139.4571  157.3383 H       1  UNL1        0.2103
@<TRIPOS>BOND
     1    26    27    2
     2    27    28   am
     3    30    28    1
     4    30    31    1
     5    31    32    1
     6    32    33    1
     7    33    34    1
     8    33    35    1
     9    35    36    1
    10    27     1    1
    11     1    20    1
    12    20    21    1
    13    21    22    1
    14    22    23    1
    15    23    24    1
    16    24    25    1
    17     1     2    1
    18     2     3   ar
    19     3    13    1
    20    13    14   ar
    21    14    15   ar
    22    15    16   ar
    23    16    17    1
    24    16    18   ar
    25    18    19   ar
    26     3     4   ar
    27     4     5   ar
    28     5     6   ar
    29     6     7   ar
    30     7     8    1
    31     7     9   ar
    32     9    10    1
    33     9    11   ar
    34    11    12   ar
    35    36    30    1
    36    25    20    1
    37    12     2   ar
    38    19    13   ar
    39    12     5   ar
    40    28    29    1
    41    34    37    1
@<TRIPOS>MOLECULE
*****
 37 41 0 0 0
SMALL
GASTEIGER

@<TRIPOS>ATOM
      1 C         141.0940  142.4144  161.2202 C.3     1  UNL1        0.1628
      2 N         140.9631  140.9233  161.3171 N.ar    1  UNL1       -0.3047
      3 C         141.4944  139.9256  160.3310 C.ar    1  UNL1        0.1441
      4 N         141.1374  138.5538  160.8217 N.ar    1  UNL1       -0.2267
      5 C         140.3855  138.7037  162.1109 C.ar    1  UNL1        0.1010
      6 C         139.7850  137.6959  163.0456 C.ar    1  UNL1        0.0526
      7 C         139.0768  138.1525  164.2865 C.ar    1  UNL1        0.1690
      8 F         138.4762  137.1447  165.2213 F       1  UNL1       -0.2017
      9 C         138.9690  139.6170  164.5927 C.ar    1  UNL1        0.1689
     10 F         138.2607  140.0736  165.8336 F       1  UNL1       -0.2017
     11 C         139.5695  140.6248  163.6580 C.ar    1  UNL1        0.0507
     12 C         140.2777  140.1681  162.4171 C.ar    1  UNL1        0.0816
     13 C         142.2500  140.2438  159.0750 C.ar    1  UNL1        0.0342
     14 C         141.5479  140.2151  157.7497 C.ar    1  UNL1        0.0039
     15 C         142.3036  140.5334  156.4936 C.ar    1  UNL1        0.0115
     16 C         143.7612  140.8803  156.5628 C.ar    1  UNL1        0.0577
     17 CL        144.5168  141.1985  155.3067 Cl      1  UNL1       -0.0822
     18 C         144.4633  140.9090  157.8880 C.ar    1  UNL1        0.0115
     19 C         143.7076  140.5908  159.1441 C.ar    1  UNL1        0.0039
     20 C         141.9843  143.1528  162.1752 C.3     1  UNL1        0.0297
     21 C         141.5065  144.4211  162.8181 C.3     1  UNL1        0.0024
     22 C         142.3967  145.1595  163.7731 C.3     1  UNL1        0.0001
     23 C         143.7649  144.6297  164.0853 C.3     1  UNL1        0.0000
     24 C         144.2428  143.3615  163.4424 C.3     1  UNL1        0.0001
     25 C         143.3525  142.6231  162.4874 C.3     1  UNL1        0.0024
     26 O         138.9173  143.6425  160.0455 O.2     1  UNL1       -0.2731
     27 C         140.3347  143.1673  160.1681 C.2     1  UNL1        0.2431
     28 N         141.0264  143.6010  158.9098 N.am    1  UNL1       -0.3044
     29 H         141.9788  143.3917  158.7744 H       1  UNL1        0.1494
     30 C         140.2670  144.3538  157.8579 C.3     1  UNL1        0.0718
     31 C         139.4208  143.6103  156.8674 C.3     1  UNL1        0.0220
     32 C         138.6613  144.3630  155.8154 C.3     1  UNL1        0.0309
     33 C         138.7481  145.8592  155.7538 C.3     1  UNL1        0.1106
     34 O         137.9887  146.6120  154.7019 O.3     1  UNL1       -0.3845
     35 C         139.5944  146.6027  156.7444 C.3     1  UNL1        0.0309
     36 C         140.3539  145.8500  157.7963 C.3     1  UNL1        0.0220
     37 H         138.1535  147.5626  154.8022 H       1  UNL1        0.2103
@<TRIPOS>BOND
     1    26    27    2
     2    27    28   am
     3    30    28    1
     4    30    31    1
     5    31    32    1
     6    32    33    1
     7    33    34    1
     8    33    35    1
     9    35    36    1
    10    27     1    1
    11     1    20    1
    12    20    21    1
    13    21    22    1
    14    22    23    1
    15    23    24    1
    16    24    25    1
    17     1     2    1
    18     2     3   ar
    19     3    13    1
    20    13    14   ar
    21    14    15   ar
    22    15    16   ar
    23    16    17    1
    24    16    18   ar
    25    18    19   ar
    26     3     4   ar
    27     4     5   ar
    28     5     6   ar
    29     6     7   ar
    30     7     8    1
    31     7     9   ar
    32     9    10    1
    33     9    11   ar
    34    11    12   ar
    35    36    30    1
    36    25    20    1
    37    12     2   ar
    38    19    13   ar
    39    12     5   ar
    40    28    29    1
    41    34    37    1
@<TRIPOS>MOLECULE
*****
 37 41 0 0 0
SMALL
GASTEIGER

@<TRIPOS>ATOM
      1 C         141.0001  140.6981  161.2799 C.3     1  UNL1        0.1628
      2 N         141.6725  142.0349  161.3842 N.ar    1  UNL1       -0.3047
      3 C         141.7046  143.0912  160.3197 C.ar    1  UNL1        0.1441
      4 N         142.4828  144.2592  160.8490 N.ar    1  UNL1       -0.2267
      5 C         142.9317  143.9248  162.2407 C.ar    1  UNL1        0.1010
      6 C         143.7318  144.6944  163.2493 C.ar    1  UNL1        0.0526
      7 C         144.0311  144.0893  164.5888 C.ar    1  UNL1        0.1690
      8 F         144.8312  144.8590  165.5976 F       1  UNL1       -0.2017
      9 C         143.5303  142.7146  164.9196 C.ar    1  UNL1        0.1689
     10 F         143.8296  142.1096  166.2592 F       1  UNL1       -0.2017
     11 C         142.7302  141.9450  163.9109 C.ar    1  UNL1        0.0507
     12 C         142.4309  142.5501  162.5715 C.ar    1  UNL1        0.0816
     13 C         141.0698  142.9962  158.9640 C.ar    1  UNL1        0.0342
     14 C         141.8788  142.5360  157.7877 C.ar    1  UNL1        0.0039
     15 C         141.2441  142.4410  156.4319 C.ar    1  UNL1        0.0115
     16 C         139.8004  142.8062  156.2524 C.ar    1  UNL1        0.0577
     17 CL        139.1656  142.7111  154.8967 Cl      1  UNL1       -0.0822
     18 C         138.9914  143.2663  157.4287 C.ar    1  UNL1        0.0115
     19 C         139.6261  143.3613  158.7845 C.ar    1  UNL1        0.0039
     20 C         141.2714  139.8121  160.1005 C.3     1  UNL1        0.0297
     21 C         140.1444  139.3880  159.2059 C.3     1  UNL1        0.0024
     22 C         140.4157  138.5019  158.0264 C.3     1  UNL1        0.0001
     23 C         141.8141  138.0398  157.7415 C.3     1  UNL1        0.0000
     24 C         142.9410  138.4639  158.6359 C.3     1  UNL1        0.0001
     25 C         142.6697  139.3500  159.8154 C.3     1  UNL1        0.0024
     26 O         138.5818  140.4052  162.5808 O.2     1  UNL1       -0.2731
     27 C         140.0563  140.2474  162.3552 C.2     1  UNL1        0.2431
     28 N         140.5703  139.4550  163.5205 N.am    1  UNL1       -0.3044
     29 H         141.5270  139.2307  163.5797 H       1  UNL1        0.1494
     30 C         139.6264  139.0043  164.5956 C.3     1  UNL1        0.0718
     31 C         139.2102  139.9578  165.6762 C.3     1  UNL1        0.0220
     32 C         138.2663  139.5072  166.7515 C.3     1  UNL1        0.0309
     33 C         137.7386  138.1030  166.7461 C.3     1  UNL1        0.1106
     34 O         136.7948  137.6524  167.8213 O.3     1  UNL1       -0.3845
     35 C         138.1549  137.1496  165.6655 C.3     1  UNL1        0.0309
     36 C         139.0988  137.6002  164.5903 C.3     1  UNL1        0.0220
     37 H         136.5521  136.7253  167.6707 H       1  UNL1        0.2103
@<TRIPOS>BOND
     1    26    27    2
     2    27    28   am
     3    30    28    1
     4    30    31    1
     5    31    32    1
     6    32    33    1
     7    33    34    1
     8    33    35    1
     9    35    36    1
    10    27     1    1
    11     1    20    1
    12    20    21    1
    13    21    22    1
    14    22    23    1
    15    23    24    1
    16    24    25    1
    17     1     2    1
    18     2     3   ar
    19     3    13    1
    20    13    14   ar
    21    14    15   ar
    22    15    16   ar
    23    16    17    1
    24    16    18   ar
    25    18    19   ar
    26     3     4   ar
    27     4     5   ar
    28     5     6   ar
    29     6     7   ar
    30     7     8    1
    31     7     9   ar
    32     9    10    1
    33     9    11   ar
    34    11    12   ar
    35    36    30    1
    36    25    20    1
    37    12     2   ar
    38    19    13   ar
    39    12     5   ar
    40    28    29    1
    41    34    37    1
@<TRIPOS>MOLECULE
*****
 37 41 0 0 0
SMALL
GASTEIGER

@<TRIPOS>ATOM
      1 C         140.1703  140.9872  160.5319 C.3     1  UNL1        0.1628
      2 N         141.5694  141.4855  160.7419 N.ar    1  UNL1       -0.3047
      3 C         142.7984  140.9828  160.0442 C.ar    1  UNL1        0.1441
      4 N         143.9737  141.7607  160.5577 N.ar    1  UNL1       -0.2267
      5 C         143.4711  142.7441  161.5727 C.ar    1  UNL1        0.1010
      6 C         144.1744  143.7724  162.4079 C.ar    1  UNL1        0.0526
      7 C         143.3919  144.6307  163.3570 C.ar    1  UNL1        0.1690
      8 F         144.0953  145.6592  164.1923 F       1  UNL1       -0.2017
      9 C         141.9059  144.4607  163.4709 C.ar    1  UNL1        0.1689
     10 F         141.1233  145.3190  164.4201 F       1  UNL1       -0.2017
     11 C         141.2025  143.4323  162.6357 C.ar    1  UNL1        0.0507
     12 C         141.9851  142.5740  161.6866 C.ar    1  UNL1        0.0816
     13 C         142.8442  139.8935  159.0140 C.ar    1  UNL1        0.0342
     14 C         143.0876  140.2334  157.5735 C.ar    1  UNL1        0.0039
     15 C         143.1333  139.1441  156.5433 C.ar    1  UNL1        0.0115
     16 C         142.9356  137.7149  156.9536 C.ar    1  UNL1        0.0577
     17 CL        142.9813  136.6256  155.9234 Cl      1  UNL1       -0.0822
     18 C         142.6922  137.3751  158.3941 C.ar    1  UNL1        0.0115
     19 C         142.6465  138.4643  159.4243 C.ar    1  UNL1        0.0039
     20 C         139.4980  141.1765  159.2045 C.3     1  UNL1        0.0297
     21 C         139.0010  142.5334  158.8022 C.3     1  UNL1        0.0024
     22 C         138.3287  142.7228  157.4748 C.3     1  UNL1        0.0001
     23 C         138.1534  141.5552  156.5495 C.3     1  UNL1        0.0000
     24 C         138.6504  140.1983  156.9518 C.3     1  UNL1        0.0001
     25 C         139.3227  140.0089  158.2792 C.3     1  UNL1        0.0024
     26 O         138.0451  139.7846  161.8218 O.2     1  UNL1       -0.2731
     27 C         139.4433  140.2994  161.6494 C.2     1  UNL1        0.2431
     28 N         140.1555  140.0002  162.9352 N.am    1  UNL1       -0.3044
     29 H         141.1000  140.2552  163.0458 H       1  UNL1        0.1494
     30 C         139.4286  139.3125  164.0526 C.3     1  UNL1        0.0718
     31 C         139.4239  137.8148  164.1345 C.3     1  UNL1        0.0220
     32 C         138.6969  137.1270  165.2520 C.3     1  UNL1        0.0309
     33 C         137.9747  137.9370  166.2874 C.3     1  UNL1        0.1106
     34 O         137.2477  137.2493  167.4048 O.3     1  UNL1       -0.3845
     35 C         137.9794  139.4348  166.2055 C.3     1  UNL1        0.0309
     36 C         138.7063  140.1225  165.0881 C.3     1  UNL1        0.0220
     37 H         136.8385  137.9134  167.9813 H       1  UNL1        0.2103
@<TRIPOS>BOND
     1    26    27    2
     2    27    28   am
     3    30    28    1
     4    30    31    1
     5    31    32    1
     6    32    33    1
     7    33    34    1
     8    33    35    1
     9    35    36    1
    10    27     1    1
    11     1    20    1
    12    20    21    1
    13    21    22    1
    14    22    23    1
    15    23    24    1
    16    24    25    1
    17     1     2    1
    18     2     3   ar
    19     3    13    1
    20    13    14   ar
    21    14    15   ar
    22    15    16   ar
    23    16    17    1
    24    16    18   ar
    25    18    19   ar
    26     3     4   ar
    27     4     5   ar
    28     5     6   ar
    29     6     7   ar
    30     7     8    1
    31     7     9   ar
    32     9    10    1
    33     9    11   ar
    34    11    12   ar
    35    36    30    1
    36    25    20    1
    37    12     2   ar
    38    19    13   ar
    39    12     5   ar
    40    28    29    1
    41    34    37    1
@<TRIPOS>MOLECULE
*****
 37 41 0 0 0
SMALL
GASTEIGER

@<TRIPOS>ATOM
      1 C         141.5420  143.2290  160.1995 C.3     1  UNL1        0.1628
      2 N         140.7199  141.9762  160.2692 N.ar    1  UNL1       -0.3047
      3 C         139.6976  141.6496  161.3171 C.ar    1  UNL1        0.1441
      4 N         139.1218  140.3016  160.9987 N.ar    1  UNL1       -0.2267
      5 C         139.7882  139.7952  159.7539 C.ar    1  UNL1        0.1010
      6 C         139.6232  138.5253  158.9727 C.ar    1  UNL1        0.0526
      7 C         140.4459  138.2905  157.7407 C.ar    1  UNL1        0.1690
      8 F         140.2810  137.0206  156.9595 F       1  UNL1       -0.2017
      9 C         141.4337  139.3254  157.2899 C.ar    1  UNL1        0.1689
     10 F         142.2564  139.0905  156.0578 F       1  UNL1       -0.2017
     11 C         141.5986  140.5953  158.0710 C.ar    1  UNL1        0.0507
     12 C         140.7759  140.8301  159.3030 C.ar    1  UNL1        0.0816
     13 C         139.3179  142.5183  162.4795 C.ar    1  UNL1        0.0342
     14 C         139.9883  142.3291  163.8078 C.ar    1  UNL1        0.0039
     15 C         139.6085  143.1979  164.9702 C.ar    1  UNL1        0.0115
     16 C         138.5583  144.2559  164.8041 C.ar    1  UNL1        0.0577
     17 CL        138.1786  145.1246  165.9665 Cl      1  UNL1       -0.0822
     18 C         137.8879  144.4451  163.4758 C.ar    1  UNL1        0.0115
     19 C         138.2677  143.5764  162.3134 C.ar    1  UNL1        0.0039
     20 C         142.3696  143.6495  161.3777 C.3     1  UNL1        0.0297
     21 C         141.9568  144.8345  162.1996 C.3     1  UNL1        0.0024
     22 C         142.7844  145.2550  163.3778 C.3     1  UNL1        0.0001
     23 C         144.0248  144.4906  163.7342 C.3     1  UNL1        0.0000
     24 C         144.4376  143.3056  162.9123 C.3     1  UNL1        0.0001
     25 C         143.6100  142.8851  161.7341 C.3     1  UNL1        0.0024
     26 O         142.5473  144.9465  158.2849 O.2     1  UNL1       -0.2731
     27 C         141.5364  144.0613  158.9516 C.2     1  UNL1        0.2431
     28 N         140.3117  144.1079  158.0866 N.am    1  UNL1       -0.3044
     29 H         139.5116  143.5923  158.3380 H       1  UNL1        0.1494
     30 C         140.3062  144.9403  156.8388 C.3     1  UNL1        0.0718
     31 C         139.8113  146.3555  156.8836 C.3     1  UNL1        0.0220
     32 C         139.8057  147.1880  155.6357 C.3     1  UNL1        0.0309
     33 C         140.2951  146.6051  154.3431 C.3     1  UNL1        0.1106
     34 O         140.2896  147.4374  153.0952 O.3     1  UNL1       -0.3845
     35 C         140.7900  145.1898  154.2984 C.3     1  UNL1        0.0309
     36 C         140.7956  144.3574  155.5462 C.3     1  UNL1        0.0220
     37 H         140.6349  146.9134  152.3556 H       1  UNL1        0.2103
@<TRIPOS>BOND
     1    26    27    2
     2    27    28   am
     3    30    28    1
     4    30    31    1
     5    31    32    1
     6    32    33    1
     7    33    34    1
     8    33    35    1
     9    35    36    1
    10    27     1    1
    11     1    20    1
    12    20    21    1
    13    21    22    1
    14    22    23    1
    15    23    24    1
    16    24    25    1
    17     1     2    1
    18     2     3   ar
    19     3    13    1
    20    13    14   ar
    21    14    15   ar
    22    15    16   ar
    23    16    17    1
    24    16    18   ar
    25    18    19   ar
    26     3     4   ar
    27     4     5   ar
    28     5     6   ar
    29     6     7   ar
    30     7     8    1
    31     7     9   ar
    32     9    10    1
    33     9    11   ar
    34    11    12   ar
    35    36    30    1
    36    25    20    1
    37    12     2   ar
    38    19    13   ar
    39    12     5   ar
    40    28    29    1
    41    34    37    1
