@<TRIPOS>MOLECULE
*****
 28 30 0 0 0
SMALL
GASTEIGER

@<TRIPOS>ATOM
      1 C         142.9929  138.6448  163.0968 C.ar    1  UNL1        0.2446
      2 N         143.6560  139.2311  161.8857 N.ar    1  UNL1       -0.2078
      3 C         144.6939  140.3025  162.0438 C.ar    1  UNL1        0.1135
      4 C         145.0687  140.7875  163.4128 C.ar    1  UNL1        0.0783
      5 CL        146.1066  141.8588  163.5708 Cl      1  UNL1       -0.0806
      6 C         144.4057  140.2012  164.6238 C.ar    1  UNL1        0.0336
      7 C         143.3677  139.1299  164.4658 C.ar    1  UNL1        0.1190
      8 N         142.7046  138.5436  165.6768 N.pl3   1  UNL1       -0.2104
      9 H         142.6742  137.5670  165.7970 H       1  UNL1        0.1739
     10 S         142.0880  139.4454  166.7047 S.O2    1  UNL1        0.0737
     11 O         143.1100  139.0004  167.7083 O.2     1  UNL1       -0.1499
     12 O         141.0659  139.8904  165.7011 O.2     1  UNL1       -0.1499
     13 C         141.4713  140.3471  167.7326 C.ar    1  UNL1        0.1261
     14 C         142.0884  141.6824  168.0259 C.ar    1  UNL1        0.0211
     15 C         141.4717  142.5842  169.0538 C.ar    1  UNL1        0.0136
     16 C         140.2379  142.1507  169.7883 C.ar    1  UNL1        0.0683
     17 CL        139.6212  143.0524  170.8162 Cl      1  UNL1       -0.0814
     18 C         139.6206  140.8153  169.4950 C.ar    1  UNL1        0.0695
     19 CL        138.3868  140.3818  170.2295 Cl      1  UNL1       -0.0813
     20 C         140.2373  139.9135  168.4671 C.ar    1  UNL1        0.0324
     21 O         141.9550  137.5735  162.9388 O.3     1  UNL1       -0.4338
     22 C         139.4546  137.3609  164.5829 C.3     1  UNL1        0.0554
     23 C         139.3750  137.7956  163.1495 C.ar    1  UNL1        0.0938
     24 N         138.0452  138.1240  162.5382 N.ar    1  UNL1       -0.2451
     25 C         137.9656  138.5588  161.1047 C.ar    1  UNL1        0.0987
     26 C         139.2157  138.6651  160.2827 C.ar    1  UNL1        0.0238
     27 C         140.5455  138.3367  160.8940 C.ar    1  UNL1        0.0404
     28 C         140.6251  137.9019  162.3274 C.ar    1  UNL1        0.1607
@<TRIPOS>BOND
     1    22    23    1
     2    23    24   ar
     3    24    25   ar
     4    25    26   ar
     5    26    27   ar
     6    27    28   ar
     7    28    21    1
     8    21     1    1
     9     1     2   ar
    10     2     3   ar
    11     3     4   ar
    12     4     5    1
    13     4     6   ar
    14     6     7   ar
    15     7     8    1
    16     8    10    1
    17    10    11    2
    18    10    12    2
    19    10    13    1
    20    13    14   ar
    21    14    15   ar
    22    15    16   ar
    23    16    17    1
    24    16    18   ar
    25    18    19    1
    26    18    20   ar
    27    28    23   ar
    28     7     1   ar
    29    20    13   ar
    30     8     9    1
@<TRIPOS>MOLECULE
*****
 28 30 0 0 0
SMALL
GASTEIGER

@<TRIPOS>ATOM
      1 C         142.2270  139.6254  167.0334 C.ar    1  UNL1        0.2446
      2 N         142.9718  139.5404  168.3328 N.ar    1  UNL1       -0.2078
      3 C         142.2311  139.6637  169.6312 C.ar    1  UNL1        0.1135
      4 C         140.7456  139.8721  169.6305 C.ar    1  UNL1        0.0783
      5 CL        140.0049  139.9954  170.9289 Cl      1  UNL1       -0.0806
      6 C         140.0009  139.9570  168.3312 C.ar    1  UNL1        0.0336
      7 C         140.7416  139.8337  167.0326 C.ar    1  UNL1        0.1190
      8 N         139.9968  139.9187  165.7334 N.pl3   1  UNL1       -0.2104
      9 H         139.5222  139.1294  165.3856 H       1  UNL1        0.1739
     10 S         139.9753  141.2062  164.9641 S.O2    1  UNL1        0.0737
     11 O         140.3147  140.4609  163.7073 O.2     1  UNL1       -0.1499
     12 O         139.6358  141.9514  166.2208 O.2     1  UNL1       -0.1499
     13 C         139.9537  142.4937  164.1948 C.ar    1  UNL1        0.1261
     14 C         138.9276  143.5405  164.5131 C.ar    1  UNL1        0.0211
     15 C         138.9060  144.8280  163.7438 C.ar    1  UNL1        0.0136
     16 C         139.9105  145.0687  162.6562 C.ar    1  UNL1        0.0683
     17 CL        139.8889  146.3563  161.8869 Cl      1  UNL1       -0.0814
     18 C         140.9366  144.0219  162.3378 C.ar    1  UNL1        0.0695
     19 CL        141.9411  144.2626  161.2501 Cl      1  UNL1       -0.0813
     20 C         140.9582  142.7344  163.1071 C.ar    1  UNL1        0.0324
     21 O         142.9678  139.5020  165.7349 O.3     1  UNL1       -0.4338
     22 C         144.0470  139.3282  162.9412 C.3     1  UNL1        0.0554
     23 C         144.0567  140.6399  163.6687 C.ar    1  UNL1        0.0938
     24 N         144.6059  141.8647  162.9993 N.ar    1  UNL1       -0.2451
     25 C         144.6156  143.1765  163.7268 C.ar    1  UNL1        0.0987
     26 C         144.0760  143.2634  165.1236 C.ar    1  UNL1        0.0238
     27 C         143.5268  142.0386  165.7930 C.ar    1  UNL1        0.0404
     28 C         143.5171  140.7269  165.0655 C.ar    1  UNL1        0.1607
@<TRIPOS>BOND
     1    22    23    1
     2    23    24   ar
     3    24    25   ar
     4    25    26   ar
     5    26    27   ar
     6    27    28   ar
     7    28    21    1
     8    21     1    1
     9     1     2   ar
    10     2     3   ar
    11     3     4   ar
    12     4     5    1
    13     4     6   ar
    14     6     7   ar
    15     7     8    1
    16     8    10    1
    17    10    11    2
    18    10    12    2
    19    10    13    1
    20    13    14   ar
    21    14    15   ar
    22    15    16   ar
    23    16    17    1
    24    16    18   ar
    25    18    19    1
    26    18    20   ar
    27    28    23   ar
    28     7     1   ar
    29    20    13   ar
    30     8     9    1
@<TRIPOS>MOLECULE
*****
 28 30 0 0 0
SMALL
GASTEIGER

@<TRIPOS>ATOM
      1 C         140.4823  141.9156  162.6963 C.ar    1  UNL1        0.2446
      2 N         139.1930  142.3491  162.0640 N.ar    1  UNL1       -0.2078
      3 C         138.9481  143.8014  161.7798 C.ar    1  UNL1        0.1135
      4 C         139.9926  144.8202  162.1277 C.ar    1  UNL1        0.0783
      5 CL        139.7478  146.2725  161.8434 Cl      1  UNL1       -0.0806
      6 C         141.2819  144.3868  162.7599 C.ar    1  UNL1        0.0336
      7 C         141.5268  142.9344  163.0442 C.ar    1  UNL1        0.1190
      8 N         142.8161  142.5010  163.6764 N.pl3   1  UNL1       -0.2104
      9 H         143.6579  142.5624  163.1696 H       1  UNL1        0.1739
     10 S         142.8229  141.9739  165.0807 S.O2    1  UNL1        0.0737
     11 O         141.8648  143.0529  165.4903 O.2     1  UNL1       -0.1499
     12 O         143.7810  140.8949  164.6711 O.2     1  UNL1       -0.1499
     13 C         142.8296  141.4468  166.4851 C.ar    1  UNL1        0.1261
     14 C         142.5592  139.9940  166.7422 C.ar    1  UNL1        0.0211
     15 C         142.5660  139.4669  168.1465 C.ar    1  UNL1        0.0136
     16 C         142.8431  140.3926  169.2937 C.ar    1  UNL1        0.0683
     17 CL        142.8499  139.8655  170.6980 Cl      1  UNL1       -0.0814
     18 C         143.1136  141.8455  169.0366 C.ar    1  UNL1        0.0695
     19 CL        143.3907  142.7712  170.1839 Cl      1  UNL1       -0.0813
     20 C         143.1068  142.3726  167.6323 C.ar    1  UNL1        0.0324
     21 O         140.7272  140.4633  162.9806 O.3     1  UNL1       -0.4338
     22 C         140.5055  137.4719  162.9289 C.3     1  UNL1        0.0554
     23 C         139.7979  138.2582  163.9925 C.ar    1  UNL1        0.0938
     24 N         138.9794  137.5487  165.0301 N.ar    1  UNL1       -0.2451
     25 C         138.2718  138.3350  166.0937 C.ar    1  UNL1        0.0987
     26 C         138.3826  139.8306  166.1195 C.ar    1  UNL1        0.0238
     27 C         139.2010  140.5400  165.0818 C.ar    1  UNL1        0.0404
     28 C         139.9087  139.7538  164.0183 C.ar    1  UNL1        0.1607
@<TRIPOS>BOND
     1    22    23    1
     2    23    24   ar
     3    24    25   ar
     4    25    26   ar
     5    26    27   ar
     6    27    28   ar
     7    28    21    1
     8    21     1    1
     9     1     2   ar
    10     2     3   ar
    11     3     4   ar
    12     4     5    1
    13     4     6   ar
    14     6     7   ar
    15     7     8    1
    16     8    10    1
    17    10    11    2
    18    10    12    2
    19    10    13    1
    20    13    14   ar
    21    14    15   ar
    22    15    16   ar
    23    16    17    1
    24    16    18   ar
    25    18    19    1
    26    18    20   ar
    27    28    23   ar
    28     7     1   ar
    29    20    13   ar
    30     8     9    1
@<TRIPOS>MOLECULE
*****
 28 30 0 0 0
SMALL
GASTEIGER

@<TRIPOS>ATOM
      1 C         142.9392  143.5052  161.8355 C.ar    1  UNL1        0.2446
      2 N         142.5894  144.2996  160.6121 N.ar    1  UNL1       -0.2078
      3 C         141.3950  145.2068  160.6232 C.ar    1  UNL1        0.1135
      4 C         140.5504  145.3198  161.8577 C.ar    1  UNL1        0.0783
      5 CL        139.3560  146.2271  161.8688 Cl      1  UNL1       -0.0806
      6 C         140.9002  144.5255  163.0810 C.ar    1  UNL1        0.0336
      7 C         142.0947  143.6181  163.0700 C.ar    1  UNL1        0.1190
      8 N         142.4445  142.8238  164.2933 N.pl3   1  UNL1       -0.2104
      9 H         143.3448  142.8944  164.6853 H       1  UNL1        0.1739
     10 S         141.4225  141.9219  164.9195 S.O2    1  UNL1        0.0737
     11 O         141.5261  142.6944  166.2012 O.2     1  UNL1       -0.1499
     12 O         141.3189  141.1494  163.6379 O.2     1  UNL1       -0.1499
     13 C         140.4006  141.0200  165.5458 C.ar    1  UNL1        0.1261
     14 C         139.4969  140.1945  164.6786 C.ar    1  UNL1        0.0211
     15 C         138.4749  139.2926  165.3049 C.ar    1  UNL1        0.0136
     16 C         138.3566  139.2162  166.7982 C.ar    1  UNL1        0.0683
     17 CL        137.3347  138.3142  167.4244 Cl      1  UNL1       -0.0814
     18 C         139.2604  140.0416  167.6654 C.ar    1  UNL1        0.0695
     19 CL        139.1421  139.9652  169.1588 Cl      1  UNL1       -0.0813
     20 C         140.2823  140.9436  167.0392 C.ar    1  UNL1        0.0324
     21 O         144.1337  142.5979  161.8244 O.3     1  UNL1       -0.4338
     22 C         145.1565  140.6241  163.8389 C.3     1  UNL1        0.0554
     23 C         144.4674  140.1401  162.5976 C.ar    1  UNL1        0.0938
     24 N         144.2897  138.6692  162.3635 N.ar    1  UNL1       -0.2451
     25 C         143.6007  138.1851  161.1222 C.ar    1  UNL1        0.0987
     26 C         143.0893  139.1719  160.1149 C.ar    1  UNL1        0.0238
     27 C         143.2670  140.6428  160.3490 C.ar    1  UNL1        0.0404
     28 C         143.9560  141.1269  161.5903 C.ar    1  UNL1        0.1607
@<TRIPOS>BOND
     1    22    23    1
     2    23    24   ar
     3    24    25   ar
     4    25    26   ar
     5    26    27   ar
     6    27    28   ar
     7    28    21    1
     8    21     1    1
     9     1     2   ar
    10     2     3   ar
    11     3     4   ar
    12     4     5    1
    13     4     6   ar
    14     6     7   ar
    15     7     8    1
    16     8    10    1
    17    10    11    2
    18    10    12    2
    19    10    13    1
    20    13    14   ar
    21    14    15   ar
    22    15    16   ar
    23    16    17    1
    24    16    18   ar
    25    18    19    1
    26    18    20   ar
    27    28    23   ar
    28     7     1   ar
    29    20    13   ar
    30     8     9    1
@<TRIPOS>MOLECULE
*****
 28 30 0 0 0
SMALL
GASTEIGER

@<TRIPOS>ATOM
      1 C         140.5181  140.2690  167.6417 C.ar    1  UNL1        0.2446
      2 N         139.5094  139.8671  168.6766 N.ar    1  UNL1       -0.2078
      3 C         139.1767  140.8010  169.8022 C.ar    1  UNL1        0.1135
      4 C         139.8527  142.1370  169.8929 C.ar    1  UNL1        0.0783
      5 CL        139.5200  143.0710  171.0185 Cl      1  UNL1       -0.0806
      6 C         140.8613  142.5390  168.8581 C.ar    1  UNL1        0.0336
      7 C         141.1941  141.6050  167.7324 C.ar    1  UNL1        0.1190
      8 N         142.2027  142.0070  166.6975 N.pl3   1  UNL1       -0.2104
      9 H         143.1630  141.9914  166.9140 H       1  UNL1        0.1739
     10 S         141.7483  142.4328  165.3329 S.O2    1  UNL1        0.0737
     11 O         140.6659  143.2657  165.9533 O.2     1  UNL1       -0.1499
     12 O         142.8306  141.6000  164.7126 O.2     1  UNL1       -0.1499
     13 C         141.2939  142.8586  163.9683 C.ar    1  UNL1        0.1261
     14 C         141.2617  141.8655  162.8447 C.ar    1  UNL1        0.0211
     15 C         140.8073  142.2913  161.4801 C.ar    1  UNL1        0.0136
     16 C         140.3850  143.7103  161.2391 C.ar    1  UNL1        0.0683
     17 CL        139.9306  144.1361  159.8745 Cl      1  UNL1       -0.0814
     18 C         140.4171  144.7035  162.3627 C.ar    1  UNL1        0.0695
     19 CL        139.9948  146.1225  162.1217 Cl      1  UNL1       -0.0813
     20 C         140.8716  144.2777  163.7273 C.ar    1  UNL1        0.0324
     21 O         140.8508  139.3351  166.5161 O.3     1  UNL1       -0.4338
     22 C         141.2653  137.1844  164.4660 C.3     1  UNL1        0.0554
     23 C         140.1684  138.1915  164.2853 C.ar    1  UNL1        0.0938
     24 N         139.2787  138.1232  163.0796 N.ar    1  UNL1       -0.2451
     25 C         138.1818  139.1302  162.8989 C.ar    1  UNL1        0.0987
     26 C         137.9745  140.2055  163.9239 C.ar    1  UNL1        0.0238
     27 C         138.8642  140.2738  165.1296 C.ar    1  UNL1        0.0404
     28 C         139.9611  139.2668  165.3103 C.ar    1  UNL1        0.1607
@<TRIPOS>BOND
     1    22    23    1
     2    23    24   ar
     3    24    25   ar
     4    25    26   ar
     5    26    27   ar
     6    27    28   ar
     7    28    21    1
     8    21     1    1
     9     1     2   ar
    10     2     3   ar
    11     3     4   ar
    12     4     5    1
    13     4     6   ar
    14     6     7   ar
    15     7     8    1
    16     8    10    1
    17    10    11    2
    18    10    12    2
    19    10    13    1
    20    13    14   ar
    21    14    15   ar
    22    15    16   ar
    23    16    17    1
    24    16    18   ar
    25    18    19    1
    26    18    20   ar
    27    28    23   ar
    28     7     1   ar
    29    20    13   ar
    30     8     9    1
@<TRIPOS>MOLECULE
*****
 28 30 0 0 0
SMALL
GASTEIGER

@<TRIPOS>ATOM
      1 C         142.7407  143.8616  161.4254 C.ar    1  UNL1        0.2446
      2 N         142.0480  143.7904  160.0967 N.ar    1  UNL1       -0.2078
      3 C         142.7193  143.1182  158.9360 C.ar    1  UNL1        0.1135
      4 C         144.0833  142.5170  159.1038 C.ar    1  UNL1        0.0783
      5 CL        144.7546  141.8447  157.9431 Cl      1  UNL1       -0.0806
      6 C         144.7760  142.5882  160.4324 C.ar    1  UNL1        0.0336
      7 C         144.1047  143.2605  161.5932 C.ar    1  UNL1        0.1190
      8 N         144.7974  143.3316  162.9217 N.pl3   1  UNL1       -0.2104
      9 H         145.6128  143.8738  163.0233 H       1  UNL1        0.1739
     10 S         144.2476  142.5767  164.0956 S.O2    1  UNL1        0.0737
     11 O         144.1827  141.3303  163.2636 O.2     1  UNL1       -0.1499
     12 O         144.3125  143.8232  164.9276 O.2     1  UNL1       -0.1499
     13 C         143.6979  141.8218  165.2694 C.ar    1  UNL1        0.1261
     14 C         143.4672  140.3431  165.1688 C.ar    1  UNL1        0.0211
     15 C         142.9174  139.5882  166.3427 C.ar    1  UNL1        0.0136
     16 C         142.5984  140.3120  167.6171 C.ar    1  UNL1        0.0683
     17 CL        142.0486  139.5571  168.7910 Cl      1  UNL1       -0.0814
     18 C         142.8291  141.7908  167.7178 C.ar    1  UNL1        0.0695
     19 CL        142.5100  142.5146  168.9922 Cl      1  UNL1       -0.0813
     20 C         143.3788  142.5457  166.5439 C.ar    1  UNL1        0.0324
     21 O         142.0694  144.5339  162.5861 O.3     1  UNL1       -0.4338
     22 C         139.7947  146.2325  161.6163 C.3     1  UNL1        0.0554
     23 C         139.5210  145.0244  162.4622 C.ar    1  UNL1        0.0938
     24 N         138.1101  144.6655  162.8232 N.ar    1  UNL1       -0.2451
     25 C         137.8364  143.4574  163.6691 C.ar    1  UNL1        0.0987
     26 C         138.9737  142.6081  164.1539 C.ar    1  UNL1        0.0238
     27 C         140.3847  142.9670  163.7929 C.ar    1  UNL1        0.0404
     28 C         140.6583  144.1751  162.9471 C.ar    1  UNL1        0.1607
@<TRIPOS>BOND
     1    22    23    1
     2    23    24   ar
     3    24    25   ar
     4    25    26   ar
     5    26    27   ar
     6    27    28   ar
     7    28    21    1
     8    21     1    1
     9     1     2   ar
    10     2     3   ar
    11     3     4   ar
    12     4     5    1
    13     4     6   ar
    14     6     7   ar
    15     7     8    1
    16     8    10    1
    17    10    11    2
    18    10    12    2
    19    10    13    1
    20    13    14   ar
    21    14    15   ar
    22    15    16   ar
    23    16    17    1
    24    16    18   ar
    25    18    19    1
    26    18    20   ar
    27    28    23   ar
    28     7     1   ar
    29    20    13   ar
    30     8     9    1
@<TRIPOS>MOLECULE
*****
 28 30 0 0 0
SMALL
GASTEIGER

@<TRIPOS>ATOM
      1 C         140.2509  144.4450  160.7768 C.ar    1  UNL1        0.2446
      2 N         141.4704  145.0843  160.1818 N.ar    1  UNL1       -0.2078
      3 C         141.8229  144.8346  158.7453 C.ar    1  UNL1        0.1135
      4 C         140.9559  143.9456  157.9039 C.ar    1  UNL1        0.0783
      5 CL        141.3084  143.6958  156.4675 Cl      1  UNL1       -0.0806
      6 C         139.7365  143.3063  158.4990 C.ar    1  UNL1        0.0336
      7 C         139.3839  143.5560  159.9354 C.ar    1  UNL1        0.1190
      8 N         138.1644  142.9167  160.5305 N.pl3   1  UNL1       -0.2104
      9 H         137.2694  143.2596  160.3055 H       1  UNL1        0.1739
     10 S         138.3085  141.7548  161.4682 S.O2    1  UNL1        0.0737
     11 O         139.2152  141.0744  160.4858 O.2     1  UNL1       -0.1499
     12 O         137.4019  142.4352  162.4505 O.2     1  UNL1       -0.1499
     13 C         138.4526  140.5929  162.4059 C.ar    1  UNL1        0.1261
     14 C         138.7608  139.2276  161.8666 C.ar    1  UNL1        0.0211
     15 C         138.9049  138.0658  162.8043 C.ar    1  UNL1        0.0136
     16 C         138.7408  138.2692  164.2814 C.ar    1  UNL1        0.0683
     17 CL        138.8850  137.1074  165.2191 Cl      1  UNL1       -0.0814
     18 C         138.4327  139.6346  164.8207 C.ar    1  UNL1        0.0695
     19 CL        138.2686  139.8381  166.2977 Cl      1  UNL1       -0.0813
     20 C         138.2885  140.7965  163.8830 C.ar    1  UNL1        0.0324
     21 O         139.8984  144.6947  162.2133 O.3     1  UNL1       -0.4338
     22 C         138.8420  144.8823  165.0148 C.3     1  UNL1        0.0554
     23 C         139.9341  143.9071  164.6888 C.ar    1  UNL1        0.0938
     24 N         140.4980  143.0258  165.7636 N.ar    1  UNL1       -0.2451
     25 C         141.5902  142.0506  165.4376 C.ar    1  UNL1        0.0987
     26 C         142.1184  141.9568  164.0369 C.ar    1  UNL1        0.0238
     27 C         141.5545  142.8382  162.9621 C.ar    1  UNL1        0.0404
     28 C         140.4623  143.8133  163.2881 C.ar    1  UNL1        0.1607
@<TRIPOS>BOND
     1    22    23    1
     2    23    24   ar
     3    24    25   ar
     4    25    26   ar
     5    26    27   ar
     6    27    28   ar
     7    28    21    1
     8    21     1    1
     9     1     2   ar
    10     2     3   ar
    11     3     4   ar
    12     4     5    1
    13     4     6   ar
    14     6     7   ar
    15     7     8    1
    16     8    10    1
    17    10    11    2
    18    10    12    2
    19    10    13    1
    20    13    14   ar
    21    14    15   ar
    22    15    16   ar
    23    16    17    1
    24    16    18   ar
    25    18    19    1
    26    18    20   ar
    27    28    23   ar
    28     7     1   ar
    29    20    13   ar
    30     8     9    1
@<TRIPOS>MOLECULE
*****
 28 30 0 0 0
SMALL
GASTEIGER

@<TRIPOS>ATOM
      1 C         142.5748  143.7527  161.3107 C.ar    1  UNL1        0.2446
      2 N         143.0027  143.6404  159.8774 N.ar    1  UNL1       -0.2078
      3 C         142.2199  144.3372  158.8042 C.ar    1  UNL1        0.1135
      4 C         141.0092  145.1462  159.1643 C.ar    1  UNL1        0.0783
      5 CL        140.2264  145.8430  158.0911 Cl      1  UNL1       -0.0806
      6 C         140.5813  145.2586  160.5975 C.ar    1  UNL1        0.0336
      7 C         141.3641  144.5618  161.6708 C.ar    1  UNL1        0.1190
      8 N         140.9362  144.6741  163.1040 N.pl3   1  UNL1       -0.2104
      9 H         141.0474  145.5255  163.5857 H       1  UNL1        0.1739
     10 S         140.3387  143.4893  163.8035 S.O2    1  UNL1        0.0737
     11 O         139.3362  143.3419  162.6974 O.2     1  UNL1       -0.1499
     12 O         141.3412  143.6367  164.9095 O.2     1  UNL1       -0.1499
     13 C         139.7412  142.3044  164.5029 C.ar    1  UNL1        0.1261
     14 C         138.7291  141.4499  163.7991 C.ar    1  UNL1        0.0211
     15 C         138.1316  140.2651  164.4986 C.ar    1  UNL1        0.0136
     16 C         138.5463  139.9348  165.9017 C.ar    1  UNL1        0.0683
     17 CL        137.9488  138.7499  166.6011 Cl      1  UNL1       -0.0814
     18 C         139.5585  140.7893  166.6055 C.ar    1  UNL1        0.0695
     19 CL        139.9732  140.4590  168.0087 Cl      1  UNL1       -0.0813
     20 C         140.1560  141.9741  165.9061 C.ar    1  UNL1        0.0324
     21 O         143.3575  143.0560  162.3839 O.3     1  UNL1       -0.4338
     22 C         145.6954  141.5770  163.5446 C.3     1  UNL1        0.0554
     23 C         144.4917  140.8204  163.0666 C.ar    1  UNL1        0.0938
     24 N         144.4568  139.3243  163.1689 N.ar    1  UNL1       -0.2451
     25 C         143.2531  138.5677  162.6909 C.ar    1  UNL1        0.0987
     26 C         142.0841  139.3071  162.1106 C.ar    1  UNL1        0.0238
     27 C         142.1190  140.8032  162.0083 C.ar    1  UNL1        0.0404
     28 C         143.3227  141.5598  162.4863 C.ar    1  UNL1        0.1607
@<TRIPOS>BOND
     1    22    23    1
     2    23    24   ar
     3    24    25   ar
     4    25    26   ar
     5    26    27   ar
     6    27    28   ar
     7    28    21    1
     8    21     1    1
     9     1     2   ar
    10     2     3   ar
    11     3     4   ar
    12     4     5    1
    13     4     6   ar
    14     6     7   ar
    15     7     8    1
    16     8    10    1
    17    10    11    2
    18    10    12    2
    19    10    13    1
    20    13    14   ar
    21    14    15   ar
    22    15    16   ar
    23    16    17    1
    24    16    18   ar
    25    18    19    1
    26    18    20   ar
    27    28    23   ar
    28     7     1   ar
    29    20    13   ar
    30     8     9    1
@<TRIPOS>MOLECULE
*****
 28 30 0 0 0
SMALL
GASTEIGER

@<TRIPOS>ATOM
      1 C         139.1593  140.1979  162.4853 C.ar    1  UNL1        0.2446
      2 N         138.6242  141.0133  161.3456 N.ar    1  UNL1       -0.2078
      3 C         138.0754  142.3862  161.5984 C.ar    1  UNL1        0.1135
      4 C         138.0618  142.9438  162.9909 C.ar    1  UNL1        0.0783
      5 CL        137.5131  144.3167  163.2437 Cl      1  UNL1       -0.0806
      6 C         138.5969  142.1285  164.1305 C.ar    1  UNL1        0.0336
      7 C         139.1457  140.7555  163.8777 C.ar    1  UNL1        0.1190
      8 N         139.6808  139.9402  165.0174 N.pl3   1  UNL1       -0.2104
      9 H         139.5796  138.9609  165.0122 H       1  UNL1        0.1739
     10 S         140.3702  140.6168  166.1649 S.O2    1  UNL1        0.0737
     11 O         141.4877  141.0265  165.2520 O.2     1  UNL1       -0.1499
     12 O         139.2527  140.2071  167.0778 O.2     1  UNL1       -0.1499
     13 C         141.0596  141.2935  167.3125 C.ar    1  UNL1        0.1261
     14 C         142.4311  140.8518  167.7294 C.ar    1  UNL1        0.0211
     15 C         143.1205  141.5285  168.8769 C.ar    1  UNL1        0.0136
     16 C         142.4383  142.6468  169.6076 C.ar    1  UNL1        0.0683
     17 CL        143.1277  143.3235  170.7551 Cl      1  UNL1       -0.0814
     18 C         141.0667  143.0886  169.1907 C.ar    1  UNL1        0.0695
     19 CL        140.3846  144.2069  169.9214 Cl      1  UNL1       -0.0813
     20 C         140.3774  142.4119  168.0432 C.ar    1  UNL1        0.0324
     21 O         139.7081  138.8250  162.2325 O.3     1  UNL1       -0.4338
     22 C         140.3597  138.5997  159.3128 C.3     1  UNL1        0.0554
     23 C         141.4580  138.5431  160.3329 C.ar    1  UNL1        0.0938
     24 N         142.8820  138.3738  159.8932 N.ar    1  UNL1       -0.2451
     25 C         143.9803  138.3172  160.9133 C.ar    1  UNL1        0.0987
     26 C         143.6545  138.4298  162.3731 C.ar    1  UNL1        0.0238
     27 C         142.2304  138.5991  162.8128 C.ar    1  UNL1        0.0404
     28 C         141.1322  138.6557  161.7927 C.ar    1  UNL1        0.1607
@<TRIPOS>BOND
     1    22    23    1
     2    23    24   ar
     3    24    25   ar
     4    25    26   ar
     5    26    27   ar
     6    27    28   ar
     7    28    21    1
     8    21     1    1
     9     1     2   ar
    10     2     3   ar
    11     3     4   ar
    12     4     5    1
    13     4     6   ar
    14     6     7   ar
    15     7     8    1
    16     8    10    1
    17    10    11    2
    18    10    12    2
    19    10    13    1
    20    13    14   ar
    21    14    15   ar
    22    15    16   ar
    23    16    17    1
    24    16    18   ar
    25    18    19    1
    26    18    20   ar
    27    28    23   ar
    28     7     1   ar
    29    20    13   ar
    30     8     9    1
