@<TRIPOS>MOLECULE
*****
 31 34 0 0 0
SMALL
GASTEIGER

@<TRIPOS>ATOM
      1 N         141.3988  142.4383  166.7737 N.3     1  UNL1       -0.2724
      2 C         142.1201  142.7050  165.4858 C.3     1  UNL1        0.0721
      3 C         141.2550  143.5976  164.6463 C.3     1  UNL1        0.0187
      4 C         139.9990  143.8825  165.4153 C.3     1  UNL1        0.0178
      5 C         140.0879  143.1660  166.7301 C.3     1  UNL1        0.0721
      6 C         141.9004  141.5923  167.9063 C.3     1  UNL1        0.0768
      7 C         141.1891  140.3214  168.2654 C.3     1  UNL1        0.0438
      8 C         140.3744  139.6004  167.2326 C.ar    1  UNL1       -0.0203
      9 C         138.8820  139.5333  167.3673 C.ar    1  UNL1       -0.0042
     10 C         138.0674  138.8123  166.3345 C.ar    1  UNL1        0.0002
     11 C         138.7453  138.1583  165.1671 C.ar    1  UNL1        0.0067
     12 C         140.2377  138.2254  165.0324 C.ar    1  UNL1        0.0343
     13 BR        140.9155  137.5714  163.8650 Br      1  UNL1       -0.0490
     14 C         141.0523  138.9464  166.0652 C.ar    1  UNL1        0.0025
     15 C         141.2924  139.7716  169.6571 C.3     1  UNL1        0.0474
     16 O         138.9726  139.6269  170.8180 O.co2   1  UNL1       -0.5492
     17 C         140.3402  140.2352  170.7194 C.2     1  UNL1        0.0507
     18 O         140.7556  141.3071  171.6829 O.co2   1  UNL1       -0.5492
     19 C         138.8550  144.7344  164.9510 C.3     1  UNL1        0.0077
     20 C         137.6293  144.0929  164.3715 C.3     1  UNL1        0.0459
     21 C         137.7631  143.0498  163.3018 C.ar    1  UNL1        0.0603
     22 C         137.6471  141.5961  163.6530 C.ar    1  UNL1        0.0145
     23 C         137.7809  140.5531  162.5834 C.ar    1  UNL1       -0.0003
     24 C         138.0307  140.9637  161.1625 C.ar    1  UNL1        0.0092
     25 C         138.1466  142.4174  160.8112 C.ar    1  UNL1        0.1240
     26 N         138.0128  143.4604  161.8809 N.ar    1  UNL1       -0.2356
     27 N         138.3963  142.8280  159.3903 N.pl3   1  UNL1       -0.3184
     28 C         138.5301  141.7850  158.3207 C.3     1  UNL1        0.0885
     29 C         138.4142  140.3313  158.6720 C.3     1  UNL1        0.0260
     30 C         138.1645  139.9207  160.0929 C.3     1  UNL1        0.0309
     31 H         138.4724  143.7821  159.1597 H       1  UNL1        0.1482
@<TRIPOS>UNITY_ATOM_ATTR
16 1
charge -1
@<TRIPOS>BOND
     1    16    17   ar
     2    17    18   ar
     3    17    15    1
     4     7    15    1
     5     7     6    1
     6     6     1    1
     7     1     2    1
     8     2     3    1
     9     3     4    1
    10     4    19    1
    11    19    20    1
    12    20    21    1
    13    21    22   ar
    14    22    23   ar
    15    23    24   ar
    16    24    25   ar
    17    25    26   ar
    18    25    27    1
    19    27    28    1
    20    28    29    1
    21    29    30    1
    22     4     5    1
    23     7     8    1
    24     8     9   ar
    25     9    10   ar
    26    10    11   ar
    27    11    12   ar
    28    12    13    1
    29    12    14   ar
    30     5     1    1
    31    14     8   ar
    32    26    21   ar
    33    30    24    1
    34    27    31    1
@<TRIPOS>MOLECULE
*****
 31 34 0 0 0
SMALL
GASTEIGER

@<TRIPOS>ATOM
      1 N         138.0868  140.4012  162.9417 N.3     1  UNL1       -0.2724
      2 C         138.1216  141.1492  161.6419 C.3     1  UNL1        0.0721
      3 C         137.9261  142.6062  161.9402 C.3     1  UNL1        0.0187
      4 C         137.7706  142.7587  163.4243 C.3     1  UNL1        0.0178
      5 C         137.8698  141.3959  164.0432 C.3     1  UNL1        0.0721
      6 C         138.2417  138.9188  163.1103 C.3     1  UNL1        0.0768
      7 C         139.1418  138.3756  164.1803 C.3     1  UNL1        0.0438
      8 C         140.6267  138.5615  164.0770 C.ar    1  UNL1       -0.0203
      9 C         141.2396  138.9970  162.7791 C.ar    1  UNL1       -0.0042
     10 C         142.7244  139.1829  162.6759 C.ar    1  UNL1        0.0002
     11 C         143.5964  138.9332  163.8706 C.ar    1  UNL1        0.0067
     12 C         142.9835  138.4976  165.1685 C.ar    1  UNL1        0.0343
     13 BR        143.8555  138.2479  166.3632 Br      1  UNL1       -0.0490
     14 C         141.4987  138.3118  165.2717 C.ar    1  UNL1        0.0025
     15 C         138.5569  137.6466  165.3535 C.3     1  UNL1        0.0474
     16 O         138.7579  139.7154  166.9124 O.co2   1  UNL1       -0.5492
     17 C         138.1045  138.4114  166.5621 C.2     1  UNL1        0.0507
     18 O         136.9988  137.8721  167.4203 O.co2   1  UNL1       -0.5492
     19 C         137.5538  144.0476  164.1602 C.3     1  UNL1        0.0077
     20 C         138.5960  144.5509  165.1144 C.3     1  UNL1        0.0459
     21 C         139.9621  143.9314  165.1280 C.ar    1  UNL1        0.0603
     22 C         140.3539  143.0037  166.2397 C.ar    1  UNL1        0.0145
     23 C         141.7200  142.3843  166.2533 C.ar    1  UNL1       -0.0003
     24 C         142.6943  142.6927  165.1552 C.ar    1  UNL1        0.0092
     25 C         142.3025  143.6204  164.0435 C.ar    1  UNL1        0.1240
     26 N         140.9363  144.2398  164.0299 N.ar    1  UNL1       -0.2356
     27 N         143.2767  143.9287  162.9455 N.pl3   1  UNL1       -0.3184
     28 C         144.6427  143.3093  162.9591 C.3     1  UNL1        0.0885
     29 C         145.0345  142.3816  164.0708 C.3     1  UNL1        0.0260
     30 C         144.0603  142.0733  165.1688 C.3     1  UNL1        0.0309
     31 H         143.0195  144.5376  162.2158 H       1  UNL1        0.1482
@<TRIPOS>UNITY_ATOM_ATTR
16 1
charge -1
@<TRIPOS>BOND
     1    16    17   ar
     2    17    18   ar
     3    17    15    1
     4     7    15    1
     5     7     6    1
     6     6     1    1
     7     1     2    1
     8     2     3    1
     9     3     4    1
    10     4    19    1
    11    19    20    1
    12    20    21    1
    13    21    22   ar
    14    22    23   ar
    15    23    24   ar
    16    24    25   ar
    17    25    26   ar
    18    25    27    1
    19    27    28    1
    20    28    29    1
    21    29    30    1
    22     4     5    1
    23     7     8    1
    24     8     9   ar
    25     9    10   ar
    26    10    11   ar
    27    11    12   ar
    28    12    13    1
    29    12    14   ar
    30     5     1    1
    31    14     8   ar
    32    26    21   ar
    33    30    24    1
    34    27    31    1
@<TRIPOS>MOLECULE
*****
 31 34 0 0 0
SMALL
GASTEIGER

@<TRIPOS>ATOM
      1 N         142.9479  140.6271  166.8986 N.3     1  UNL1       -0.2724
      2 C         143.0424  139.1526  167.1577 C.3     1  UNL1        0.0721
      3 C         143.5943  138.4998  165.9252 C.3     1  UNL1        0.0187
      4 C         143.8410  139.5707  164.9043 C.3     1  UNL1        0.0178
      5 C         143.4415  140.8854  165.5059 C.3     1  UNL1        0.0721
      6 C         142.4476  141.6615  167.8628 C.3     1  UNL1        0.0768
      7 C         140.9729  141.8690  168.0418 C.3     1  UNL1        0.0438
      8 C         140.0034  141.2046  167.1097 C.ar    1  UNL1       -0.0203
      9 C         139.4431  139.8548  167.4475 C.ar    1  UNL1       -0.0042
     10 C         138.4737  139.1905  166.5153 C.ar    1  UNL1        0.0002
     11 C         138.0645  139.8760  165.2454 C.ar    1  UNL1        0.0067
     12 C         138.6248  141.2258  164.9076 C.ar    1  UNL1        0.0343
     13 BR        138.2156  141.9113  163.6377 Br      1  UNL1       -0.0490
     14 C         139.5942  141.8901  165.8397 C.ar    1  UNL1        0.0025
     15 C         140.4676  142.7409  169.1528 C.3     1  UNL1        0.0474
     16 O         138.7386  141.4087  170.5622 O.co2   1  UNL1       -0.5492
     17 C         140.0509  142.1279  170.4569 C.2     1  UNL1        0.0507
     18 O         140.9463  142.2340  171.6556 O.co2   1  UNL1       -0.5492
     19 C         144.3907  139.3633  163.5242 C.3     1  UNL1        0.0077
     20 C         143.7366  138.3832  162.5959 C.3     1  UNL1        0.0459
     21 C         142.2557  138.4425  162.3648 C.ar    1  UNL1        0.0603
     22 C         141.3422  137.5177  163.1134 C.ar    1  UNL1        0.0145
     23 C         139.8613  137.5769  162.8824 C.ar    1  UNL1       -0.0003
     24 C         139.2938  138.5610  161.9028 C.ar    1  UNL1        0.0092
     25 C         140.2072  139.4858  161.1542 C.ar    1  UNL1        0.1240
     26 N         141.6882  139.4266  161.3853 N.ar    1  UNL1       -0.2356
     27 N         139.6398  140.4699  160.1747 N.pl3   1  UNL1       -0.3184
     28 C         138.1589  140.5291  159.9436 C.3     1  UNL1        0.0885
     29 C         137.2455  139.6043  160.6922 C.3     1  UNL1        0.0260
     30 C         137.8129  138.6202  161.6718 C.3     1  UNL1        0.0309
     31 H         140.2393  141.0769  159.6834 H       1  UNL1        0.1482
@<TRIPOS>UNITY_ATOM_ATTR
16 1
charge -1
@<TRIPOS>BOND
     1    16    17   ar
     2    17    18   ar
     3    17    15    1
     4     7    15    1
     5     7     6    1
     6     6     1    1
     7     1     2    1
     8     2     3    1
     9     3     4    1
    10     4    19    1
    11    19    20    1
    12    20    21    1
    13    21    22   ar
    14    22    23   ar
    15    23    24   ar
    16    24    25   ar
    17    25    26   ar
    18    25    27    1
    19    27    28    1
    20    28    29    1
    21    29    30    1
    22     4     5    1
    23     7     8    1
    24     8     9   ar
    25     9    10   ar
    26    10    11   ar
    27    11    12   ar
    28    12    13    1
    29    12    14   ar
    30     5     1    1
    31    14     8   ar
    32    26    21   ar
    33    30    24    1
    34    27    31    1
@<TRIPOS>MOLECULE
*****
 31 34 0 0 0
SMALL
GASTEIGER

@<TRIPOS>ATOM
      1 N         138.5070  139.1646  165.8784 N.3     1  UNL1       -0.2724
      2 C         138.8875  137.9533  165.0795 C.3     1  UNL1        0.0721
      3 C         138.6919  138.2753  163.6276 C.3     1  UNL1        0.0187
      4 C         138.1904  139.6855  163.5291 C.3     1  UNL1        0.0178
      5 C         138.0761  140.2351  164.9201 C.3     1  UNL1        0.0721
      6 C         138.5498  139.2842  167.3729 C.3     1  UNL1        0.0768
      7 C         139.5851  140.1507  168.0266 C.3     1  UNL1        0.0438
      8 C         140.7921  140.5910  167.2524 C.ar    1  UNL1       -0.0203
      9 C         141.0307  142.0504  167.0010 C.ar    1  UNL1       -0.0042
     10 C         142.2376  142.4906  166.2268 C.ar    1  UNL1        0.0002
     11 C         143.2061  141.4714  165.7039 C.ar    1  UNL1        0.0067
     12 C         142.9675  140.0120  165.9552 C.ar    1  UNL1        0.0343
     13 BR        143.9359  138.9928  165.4324 Br      1  UNL1       -0.0490
     14 C         141.7605  139.5718  166.7295 C.ar    1  UNL1        0.0025
     15 C         139.4135  140.5769  169.4545 C.3     1  UNL1        0.0474
     16 O         141.3468  139.0257  170.2333 O.co2   1  UNL1       -0.5492
     17 C         140.4394  140.1945  170.4799 C.2     1  UNL1        0.0507
     18 O         140.5578  140.9807  171.7518 O.co2   1  UNL1       -0.5492
     19 C         137.8610  140.4176  162.2620 C.3     1  UNL1        0.0077
     20 C         137.7173  141.9106  162.2742 C.3     1  UNL1        0.0459
     21 C         138.8773  142.7725  162.6763 C.ar    1  UNL1        0.0603
     22 C         138.6533  143.9727  163.5477 C.ar    1  UNL1        0.0145
     23 C         139.8132  144.8346  163.9498 C.ar    1  UNL1       -0.0003
     24 C         141.1972  144.4962  163.4806 C.ar    1  UNL1        0.0092
     25 C         141.4213  143.2960  162.6093 C.ar    1  UNL1        0.1240
     26 N         140.2613  142.4341  162.2071 N.ar    1  UNL1       -0.2356
     27 N         142.8052  142.9576  162.1401 N.pl3   1  UNL1       -0.3184
     28 C         143.9651  143.8195  162.5422 C.3     1  UNL1        0.0885
     29 C         143.7411  145.0197  163.4136 C.3     1  UNL1        0.0260
     30 C         142.3572  145.3581  163.8827 C.3     1  UNL1        0.0309
     31 H         142.9522  142.1698  161.5682 H       1  UNL1        0.1482
@<TRIPOS>UNITY_ATOM_ATTR
16 1
charge -1
@<TRIPOS>BOND
     1    16    17   ar
     2    17    18   ar
     3    17    15    1
     4     7    15    1
     5     7     6    1
     6     6     1    1
     7     1     2    1
     8     2     3    1
     9     3     4    1
    10     4    19    1
    11    19    20    1
    12    20    21    1
    13    21    22   ar
    14    22    23   ar
    15    23    24   ar
    16    24    25   ar
    17    25    26   ar
    18    25    27    1
    19    27    28    1
    20    28    29    1
    21    29    30    1
    22     4     5    1
    23     7     8    1
    24     8     9   ar
    25     9    10   ar
    26    10    11   ar
    27    11    12   ar
    28    12    13    1
    29    12    14   ar
    30     5     1    1
    31    14     8   ar
    32    26    21   ar
    33    30    24    1
    34    27    31    1
@<TRIPOS>MOLECULE
*****
 31 34 0 0 0
SMALL
GASTEIGER

@<TRIPOS>ATOM
      1 N         141.8424  139.0162  164.0045 N.3     1  UNL1       -0.2724
      2 C         142.4098  138.5242  162.7060 C.3     1  UNL1        0.0721
      3 C         143.8114  139.0447  162.5858 C.3     1  UNL1        0.0187
      4 C         144.1104  139.8583  163.8099 C.3     1  UNL1        0.0178
      5 C         142.8934  139.8407  164.6868 C.3     1  UNL1        0.0721
      6 C         140.4658  138.7333  164.5287 C.3     1  UNL1        0.0768
      7 C         139.7737  139.7391  165.4001 C.3     1  UNL1        0.0438
      8 C         139.0705  140.9105  164.7807 C.ar    1  UNL1       -0.0203
      9 C         138.1874  140.7086  163.5852 C.ar    1  UNL1       -0.0042
     10 C         137.4843  141.8800  162.9658 C.ar    1  UNL1        0.0002
     11 C         137.6644  143.2532  163.5419 C.ar    1  UNL1        0.0067
     12 C         138.5475  143.4550  164.7375 C.ar    1  UNL1        0.0343
     13 BR        138.7275  144.8282  165.3136 Br      1  UNL1       -0.0490
     14 C         139.2506  142.2837  165.3569 C.ar    1  UNL1        0.0025
     15 C         139.7847  139.5736  166.8909 C.3     1  UNL1        0.0474
     16 O         137.3689  138.6175  166.8819 O.co2   1  UNL1       -0.5492
     17 C         138.5146  139.2459  167.6186 C.2     1  UNL1        0.0507
     18 O         138.3902  139.5466  169.0829 O.co2   1  UNL1       -0.5492
     19 C         145.3998  140.5654  164.1054 C.3     1  UNL1        0.0077
     20 C         145.5748  142.0019  163.7109 C.3     1  UNL1        0.0459
     21 C         144.3769  142.8364  163.3664 C.ar    1  UNL1        0.0603
     22 C         143.5487  143.4464  164.4582 C.ar    1  UNL1        0.0145
     23 C         142.3508  144.2809  164.1138 C.ar    1  UNL1       -0.0003
     24 C         141.9810  144.5054  162.6775 C.ar    1  UNL1        0.0092
     25 C         142.8092  143.8955  161.5856 C.ar    1  UNL1        0.1240
     26 N         144.0072  143.0610  161.9301 N.ar    1  UNL1       -0.2356
     27 N         142.4395  144.1200  160.1494 N.pl3   1  UNL1       -0.3184
     28 C         141.2416  144.9544  159.8050 C.3     1  UNL1        0.0885
     29 C         140.4134  145.5644  160.8968 C.3     1  UNL1        0.0260
     30 C         140.7832  145.3399  162.3330 C.3     1  UNL1        0.0309
     31 H         142.9831  143.7196  159.4328 H       1  UNL1        0.1482
@<TRIPOS>UNITY_ATOM_ATTR
16 1
charge -1
@<TRIPOS>BOND
     1    16    17   ar
     2    17    18   ar
     3    17    15    1
     4     7    15    1
     5     7     6    1
     6     6     1    1
     7     1     2    1
     8     2     3    1
     9     3     4    1
    10     4    19    1
    11    19    20    1
    12    20    21    1
    13    21    22   ar
    14    22    23   ar
    15    23    24   ar
    16    24    25   ar
    17    25    26   ar
    18    25    27    1
    19    27    28    1
    20    28    29    1
    21    29    30    1
    22     4     5    1
    23     7     8    1
    24     8     9   ar
    25     9    10   ar
    26    10    11   ar
    27    11    12   ar
    28    12    13    1
    29    12    14   ar
    30     5     1    1
    31    14     8   ar
    32    26    21   ar
    33    30    24    1
    34    27    31    1
@<TRIPOS>MOLECULE
*****
 31 34 0 0 0
SMALL
GASTEIGER

@<TRIPOS>ATOM
      1 N         142.3038  139.0673  164.7202 N.3     1  UNL1       -0.2724
      2 C         142.7594  138.3629  163.4766 C.3     1  UNL1        0.0721
      3 C         144.0752  138.9538  163.0649 C.3     1  UNL1        0.0187
      4 C         144.4329  140.0233  164.0539 C.3     1  UNL1        0.0178
      5 C         143.3381  140.0935  165.0769 C.3     1  UNL1        0.0721
      6 C         141.0365  138.7936  165.4745 C.3     1  UNL1        0.0768
      7 C         139.7567  139.4543  165.0555 C.3     1  UNL1        0.0438
      8 C         139.5886  140.9358  165.2201 C.ar    1  UNL1       -0.0203
      9 C         140.2996  141.6526  166.3294 C.ar    1  UNL1       -0.0042
     10 C         140.1315  143.1340  166.4940 C.ar    1  UNL1        0.0002
     11 C         139.2523  143.8987  165.5493 C.ar    1  UNL1        0.0067
     12 C         138.5412  143.1818  164.4400 C.ar    1  UNL1        0.0343
     13 BR        137.6620  143.9464  163.4953 Br      1  UNL1       -0.0490
     14 C         138.7094  141.7004  164.2754 C.ar    1  UNL1        0.0025
     15 C         138.6450  138.6336  164.4719 C.3     1  UNL1        0.0474
     16 O         139.7107  137.2873  162.5220 O.co2   1  UNL1       -0.5492
     17 C         138.6762  138.2519  163.0216 C.2     1  UNL1        0.0507
     18 O         137.6729  138.8347  162.0709 O.co2   1  UNL1       -0.5492
     19 C         145.6683  140.8734  164.0250 C.3     1  UNL1        0.0077
     20 C         145.7122  142.1037  163.1681 C.3     1  UNL1        0.0459
     21 C         144.5001  142.9796  163.0506 C.ar    1  UNL1        0.0603
     22 C         143.9148  143.6182  164.2752 C.ar    1  UNL1        0.0145
     23 C         142.7027  144.4940  164.1578 C.ar    1  UNL1       -0.0003
     24 C         142.0759  144.7312  162.8158 C.ar    1  UNL1        0.0092
     25 C         142.6612  144.0925  161.5912 C.ar    1  UNL1        0.1240
     26 N         143.8734  143.2167  161.7087 N.ar    1  UNL1       -0.2356
     27 N         142.0345  144.3297  160.2492 N.pl3   1  UNL1       -0.3184
     28 C         140.8224  145.2055  160.1318 C.3     1  UNL1        0.0885
     29 C         140.2371  145.8441  161.3564 C.3     1  UNL1        0.0260
     30 C         140.8638  145.6070  162.6983 C.3     1  UNL1        0.0309
     31 H         142.4187  143.9105  159.4455 H       1  UNL1        0.1482
@<TRIPOS>UNITY_ATOM_ATTR
16 1
charge -1
@<TRIPOS>BOND
     1    16    17   ar
     2    17    18   ar
     3    17    15    1
     4     7    15    1
     5     7     6    1
     6     6     1    1
     7     1     2    1
     8     2     3    1
     9     3     4    1
    10     4    19    1
    11    19    20    1
    12    20    21    1
    13    21    22   ar
    14    22    23   ar
    15    23    24   ar
    16    24    25   ar
    17    25    26   ar
    18    25    27    1
    19    27    28    1
    20    28    29    1
    21    29    30    1
    22     4     5    1
    23     7     8    1
    24     8     9   ar
    25     9    10   ar
    26    10    11   ar
    27    11    12   ar
    28    12    13    1
    29    12    14   ar
    30     5     1    1
    31    14     8   ar
    32    26    21   ar
    33    30    24    1
    34    27    31    1
@<TRIPOS>MOLECULE
*****
 31 34 0 0 0
SMALL
GASTEIGER

@<TRIPOS>ATOM
      1 N         142.0944  143.9782  164.0080 N.3     1  UNL1       -0.2724
      2 C         142.8013  144.5571  162.8183 C.3     1  UNL1        0.0721
      3 C         144.1396  143.8893  162.7042 C.3     1  UNL1        0.0187
      4 C         144.2598  142.8978  163.8233 C.3     1  UNL1        0.0178
      5 C         142.9958  142.9527  164.6291 C.3     1  UNL1        0.0721
      6 C         140.7263  144.3582  164.4916 C.3     1  UNL1        0.0768
      7 C         139.6981  143.2956  164.7439 C.3     1  UNL1        0.0438
      8 C         139.8151  142.4097  165.9488 C.ar    1  UNL1       -0.0203
      9 C         139.3543  140.9840  165.8791 C.ar    1  UNL1       -0.0042
     10 C         139.4714  140.0982  167.0839 C.ar    1  UNL1        0.0002
     11 C         140.0493  140.6381  168.3585 C.ar    1  UNL1        0.0067
     12 C         140.5101  142.0638  168.4282 C.ar    1  UNL1        0.0343
     13 BR        141.0881  142.6038  169.7028 Br      1  UNL1       -0.0490
     14 C         140.3931  142.9496  167.2234 C.ar    1  UNL1        0.0025
     15 C         138.5528  143.1188  163.7915 C.3     1  UNL1        0.0474
     16 O         139.9952  141.8782  162.0221 O.co2   1  UNL1       -0.5492
     17 C         138.8160  142.7400  162.3642 C.2     1  UNL1        0.0507
     18 O         137.9000  143.2229  161.2789 O.co2   1  UNL1       -0.5492
     19 C         145.4373  142.0076  164.0899 C.3     1  UNL1        0.0077
     20 C         145.3605  140.5452  163.7655 C.3     1  UNL1        0.0459
     21 C         144.0737  139.7998  163.9623 C.ar    1  UNL1        0.0603
     22 C         143.7882  139.1296  165.2735 C.ar    1  UNL1        0.0145
     23 C         142.5015  138.3843  165.4704 C.ar    1  UNL1       -0.0003
     24 C         141.5001  138.3092  164.3561 C.ar    1  UNL1        0.0092
     25 C         141.7856  138.9794  163.0449 C.ar    1  UNL1        0.1240
     26 N         143.0724  139.7248  162.8480 N.ar    1  UNL1       -0.2356
     27 N         140.7843  138.9044  161.9305 N.pl3   1  UNL1       -0.3184
     28 C         139.4976  138.1591  162.1274 C.3     1  UNL1        0.0885
     29 C         139.2121  137.4888  163.4387 C.3     1  UNL1        0.0260
     30 C         140.2134  137.5639  164.5530 C.3     1  UNL1        0.0309
     31 H         140.9717  139.3443  161.0699 H       1  UNL1        0.1482
@<TRIPOS>UNITY_ATOM_ATTR
16 1
charge -1
@<TRIPOS>BOND
     1    16    17   ar
     2    17    18   ar
     3    17    15    1
     4     7    15    1
     5     7     6    1
     6     6     1    1
     7     1     2    1
     8     2     3    1
     9     3     4    1
    10     4    19    1
    11    19    20    1
    12    20    21    1
    13    21    22   ar
    14    22    23   ar
    15    23    24   ar
    16    24    25   ar
    17    25    26   ar
    18    25    27    1
    19    27    28    1
    20    28    29    1
    21    29    30    1
    22     4     5    1
    23     7     8    1
    24     8     9   ar
    25     9    10   ar
    26    10    11   ar
    27    11    12   ar
    28    12    13    1
    29    12    14   ar
    30     5     1    1
    31    14     8   ar
    32    26    21   ar
    33    30    24    1
    34    27    31    1
@<TRIPOS>MOLECULE
*****
 31 34 0 0 0
SMALL
GASTEIGER

@<TRIPOS>ATOM
      1 N         138.2377  141.1525  164.4177 N.3     1  UNL1       -0.2724
      2 C         138.3247  140.0706  165.4531 C.3     1  UNL1        0.0721
      3 C         138.5835  138.7728  164.7468 C.3     1  UNL1        0.0187
      4 C         138.6564  139.0526  163.2750 C.3     1  UNL1        0.0178
      5 C         138.4427  140.5233  163.0716 C.3     1  UNL1        0.0721
      6 C         137.9893  142.6079  164.6820 C.3     1  UNL1        0.0768
      7 C         139.1449  143.5577  164.7943 C.3     1  UNL1        0.0438
      8 C         140.3893  143.1422  165.5216 C.ar    1  UNL1       -0.0203
      9 C         141.6976  143.0738  164.7910 C.ar    1  UNL1       -0.0042
     10 C         142.9419  142.6583  165.5184 C.ar    1  UNL1        0.0002
     11 C         142.8780  142.3112  166.9763 C.ar    1  UNL1        0.0067
     12 C         141.5697  142.3797  167.7069 C.ar    1  UNL1        0.0343
     13 BR        141.5058  142.0326  169.1648 Br      1  UNL1       -0.0490
     14 C         140.3254  142.7952  166.9795 C.ar    1  UNL1        0.0025
     15 C         139.0561  144.9229  164.1792 C.3     1  UNL1        0.0474
     16 O         139.8867  146.2521  162.1070 O.co2   1  UNL1       -0.5492
     17 C         139.1507  145.0825  162.6907 C.2     1  UNL1        0.0507
     18 O         138.5092  144.0727  161.7859 O.co2   1  UNL1       -0.5492
     19 C         138.9001  138.0395  162.1960 C.3     1  UNL1        0.0077
     20 C         140.2319  137.9820  161.5083 C.3     1  UNL1        0.0459
     21 C         141.4465  138.5551  162.1765 C.ar    1  UNL1        0.0603
     22 C         141.9875  137.9188  163.4225 C.ar    1  UNL1        0.0145
     23 C         143.2019  138.4919  164.0907 C.ar    1  UNL1       -0.0003
     24 C         143.8755  139.7013  163.5130 C.ar    1  UNL1        0.0092
     25 C         143.3345  140.3376  162.2670 C.ar    1  UNL1        0.1240
     26 N         142.1200  139.7645  161.5988 N.ar    1  UNL1       -0.2356
     27 N         144.0080  141.5469  161.6893 N.pl3   1  UNL1       -0.3184
     28 C         145.2225  142.1200  162.3575 C.3     1  UNL1        0.0885
     29 C         145.7635  141.4837  163.6035 C.3     1  UNL1        0.0260
     30 C         145.0900  140.2743  164.1812 C.3     1  UNL1        0.0309
     31 H         143.6530  141.9646  160.8715 H       1  UNL1        0.1482
@<TRIPOS>UNITY_ATOM_ATTR
16 1
charge -1
@<TRIPOS>BOND
     1    16    17   ar
     2    17    18   ar
     3    17    15    1
     4     7    15    1
     5     7     6    1
     6     6     1    1
     7     1     2    1
     8     2     3    1
     9     3     4    1
    10     4    19    1
    11    19    20    1
    12    20    21    1
    13    21    22   ar
    14    22    23   ar
    15    23    24   ar
    16    24    25   ar
    17    25    26   ar
    18    25    27    1
    19    27    28    1
    20    28    29    1
    21    29    30    1
    22     4     5    1
    23     7     8    1
    24     8     9   ar
    25     9    10   ar
    26    10    11   ar
    27    11    12   ar
    28    12    13    1
    29    12    14   ar
    30     5     1    1
    31    14     8   ar
    32    26    21   ar
    33    30    24    1
    34    27    31    1
@<TRIPOS>MOLECULE
*****
 31 34 0 0 0
SMALL
GASTEIGER

@<TRIPOS>ATOM
      1 N         138.1438  141.0441  164.3744 N.3     1  UNL1       -0.2724
      2 C         137.5699  141.0553  162.9885 C.3     1  UNL1        0.0721
      3 C         137.7435  142.4349  162.4259 C.3     1  UNL1        0.0187
      4 C         138.4247  143.2764  163.4640 C.3     1  UNL1        0.0178
      5 C         138.6721  142.4169  164.6682 C.3     1  UNL1        0.0721
      6 C         138.1826  139.8670  165.3032 C.3     1  UNL1        0.0768
      7 C         139.4918  139.2110  165.6284 C.3     1  UNL1        0.0438
      8 C         140.3492  139.7545  166.7328 C.ar    1  UNL1       -0.0203
      9 C         141.8358  139.5586  166.6938 C.ar    1  UNL1       -0.0042
     10 C         142.6931  140.1021  167.7982 C.ar    1  UNL1        0.0002
     11 C         142.0637  140.8415  168.9415 C.ar    1  UNL1        0.0067
     12 C         140.5771  141.0374  168.9805 C.ar    1  UNL1        0.0343
     13 BR        139.9478  141.7768  170.1239 Br      1  UNL1       -0.0490
     14 C         139.7198  140.4939  167.8761 C.ar    1  UNL1        0.0025
     15 C         139.9437  138.0115  164.8492 C.3     1  UNL1        0.0474
     16 O         140.9032  136.9888  162.6620 O.co2   1  UNL1       -0.5492
     17 C         140.5832  138.1884  163.5039 C.2     1  UNL1        0.0507
     18 O         140.9028  139.5648  163.0005 O.co2   1  UNL1       -0.5492
     19 C         138.7938  144.7234  163.3228 C.3     1  UNL1        0.0077
     20 C         140.0564  145.1093  162.6109 C.3     1  UNL1        0.0459
     21 C         141.3603  144.4791  163.0016 C.ar    1  UNL1        0.0603
     22 C         142.3325  145.2361  163.8571 C.ar    1  UNL1        0.0145
     23 C         143.6365  144.6059  164.2479 C.ar    1  UNL1       -0.0003
     24 C         143.9682  143.2188  163.7831 C.ar    1  UNL1        0.0092
     25 C         142.9960  142.4619  162.9276 C.ar    1  UNL1        0.1240
     26 N         141.6920  143.0921  162.5369 N.ar    1  UNL1       -0.2356
     27 N         143.3277  141.0748  162.4629 N.pl3   1  UNL1       -0.3184
     28 C         144.6316  140.4447  162.8536 C.3     1  UNL1        0.0885
     29 C         145.6038  141.2017  163.7091 C.3     1  UNL1        0.0260
     30 C         145.2721  142.5887  164.1739 C.3     1  UNL1        0.0309
     31 H         142.6896  140.5781  161.9014 H       1  UNL1        0.1482
@<TRIPOS>UNITY_ATOM_ATTR
16 1
charge -1
@<TRIPOS>BOND
     1    16    17   ar
     2    17    18   ar
     3    17    15    1
     4     7    15    1
     5     7     6    1
     6     6     1    1
     7     1     2    1
     8     2     3    1
     9     3     4    1
    10     4    19    1
    11    19    20    1
    12    20    21    1
    13    21    22   ar
    14    22    23   ar
    15    23    24   ar
    16    24    25   ar
    17    25    26   ar
    18    25    27    1
    19    27    28    1
    20    28    29    1
    21    29    30    1
    22     4     5    1
    23     7     8    1
    24     8     9   ar
    25     9    10   ar
    26    10    11   ar
    27    11    12   ar
    28    12    13    1
    29    12    14   ar
    30     5     1    1
    31    14     8   ar
    32    26    21   ar
    33    30    24    1
    34    27    31    1
