@<TRIPOS>MOLECULE
*****
 30 32 0 0 0
SMALL
GASTEIGER

@<TRIPOS>ATOM
      1 O         139.2812  141.3884  165.9090 O.3     1  UNL1       -0.4776
      2 C         142.6915  139.3861  165.5763 C.ar    1  UNL1       -0.0191
      3 C         141.4528  140.1470  165.2067 C.ar    1  UNL1        0.0342
      4 C         140.5199  140.6275  166.2786 C.ar    1  UNL1        0.1555
      5 C         140.8257  140.3470  167.7201 C.ar    1  UNL1        0.1151
      6 N         139.8929  140.8274  168.7919 N.ar    1  UNL1       -0.2408
      7 C         140.1987  140.5470  170.2334 C.ar    1  UNL1        0.0989
      8 C         141.4374  139.7860  170.6029 C.ar    1  UNL1        0.0207
      9 C         142.3703  139.3056  169.5311 C.ar    1  UNL1        0.0032
     10 C         142.0644  139.5861  168.0897 C.ar    1  UNL1        0.0204
     11 C         142.9973  139.1056  167.0177 C.ar    1  UNL1       -0.0026
     12 C         143.6244  138.9057  164.5044 C.3     1  UNL1        0.0265
     13 C         144.9914  139.5092  164.3741 C.3     1  UNL1        0.0047
     14 C         144.9605  142.1039  164.2461 C.3     1  UNL1        0.0000
     15 C         145.1814  140.7735  163.5895 C.3     1  UNL1        0.0003
     16 C         139.3574  142.5072  164.9128 C.3     1  UNL1        0.1688
     17 C         138.4712  142.4955  163.7026 C.3     1  UNL1        0.0609
     18 C         138.5475  143.6143  162.7064 C.3     1  UNL1        0.0758
     19 N         139.5099  144.7447  162.9203 N.3     1  UNL1       -0.2712
     20 C         140.3962  144.7564  164.1304 C.3     1  UNL1        0.0758
     21 C         140.3199  143.6376  165.1267 C.3     1  UNL1        0.0609
     22 C         139.5862  145.8635  161.9241 C.3     1  UNL1        0.0911
     23 C         140.2660  145.6477  160.6045 C.3     1  UNL1        0.1084
     24 N         141.7257  145.3050  160.5599 N.3     1  UNL1       -0.1819
     25 H         142.1961  145.9357  161.2090 H       1  UNL1        0.1485
     26 S         142.1807  143.9165  160.8987 S.O2    1  UNL1        0.0408
     27 O         143.2567  144.4833  161.7767 O.2     1  UNL1       -0.1575
     28 O         141.1047  143.3497  160.0207 O.2     1  UNL1       -0.1575
     29 C         142.6357  142.5279  161.2375 C.3     1  UNL1        0.1689
     30 C         141.6626  141.5373  161.8048 C.3     1  UNL1        0.0289
@<TRIPOS>BOND
     1    14    15    1
     2    15    13    1
     3    13    12    1
     4    12     2    1
     5     2     3   ar
     6     3     4   ar
     7     4     1    1
     8     1    16    1
     9    16    17    1
    10    17    18    1
    11    18    19    1
    12    19    22    1
    13    22    23    1
    14    23    24    1
    15    24    26    1
    16    26    27    2
    17    26    28    2
    18    26    29    1
    19    29    30    1
    20    19    20    1
    21    20    21    1
    22     4     5   ar
    23     5     6   ar
    24     6     7   ar
    25     7     8   ar
    26     8     9   ar
    27     9    10   ar
    28    10    11   ar
    29    11     2   ar
    30    21    16    1
    31    10     5   ar
    32    24    25    1
@<TRIPOS>MOLECULE
*****
 30 32 0 0 0
SMALL
GASTEIGER

@<TRIPOS>ATOM
      1 O         142.3428  138.4314  165.9914 O.3     1  UNL1       -0.4776
      2 C         142.6433  141.2691  168.7494 C.ar    1  UNL1       -0.0191
      3 C         142.3471  139.9503  168.0992 C.ar    1  UNL1        0.0342
      4 C         142.6390  139.7503  166.6416 C.ar    1  UNL1        0.1555
      5 C         143.2273  140.8693  165.8341 C.ar    1  UNL1        0.1151
      6 N         143.5193  140.6693  164.3764 N.ar    1  UNL1       -0.2408
      7 C         144.1075  141.7882  163.5690 C.ar    1  UNL1        0.0989
      8 C         144.4037  143.1071  164.2193 C.ar    1  UNL1        0.0207
      9 C         144.1117  143.3071  165.6769 C.ar    1  UNL1        0.0032
     10 C         143.5235  142.1881  166.4843 C.ar    1  UNL1        0.0204
     11 C         143.2315  142.3881  167.9420 C.ar    1  UNL1       -0.0026
     12 C         142.3513  141.4691  170.2071 C.3     1  UNL1        0.0265
     13 C         140.9344  141.4419  170.6988 C.3     1  UNL1        0.0047
     14 C         140.4299  143.8544  169.8770 C.3     1  UNL1        0.0000
     15 C         139.9555  142.4741  170.2230 C.3     1  UNL1        0.0003
     16 C         141.2526  138.3287  164.9662 C.3     1  UNL1        0.1688
     17 C         139.8750  138.8302  165.2836 C.3     1  UNL1        0.0609
     18 C         138.7848  138.7275  164.2584 C.3     1  UNL1        0.0758
     19 N         139.0722  138.1232  162.9159 N.3     1  UNL1       -0.2712
     20 C         140.4498  137.6217  162.5986 C.3     1  UNL1        0.0758
     21 C         141.5400  137.7244  163.6237 C.3     1  UNL1        0.0609
     22 C         137.9821  138.0205  161.8908 C.3     1  UNL1        0.0911
     23 C         137.6360  139.2081  161.0424 C.3     1  UNL1        0.1084
     24 N         137.0512  140.4364  161.6742 N.3     1  UNL1       -0.1819
     25 H         136.7265  140.1641  162.6020 H       1  UNL1        0.1485
     26 S         137.8966  141.6623  161.8539 S.O2    1  UNL1        0.0408
     27 O         137.0302  142.0918  163.0004 O.2     1  UNL1       -0.1575
     28 O         138.7631  141.2328  160.7073 O.2     1  UNL1       -0.1575
     29 C         138.7421  142.8883  162.0334 C.3     1  UNL1        0.1689
     30 C         138.6736  143.6655  163.3146 C.3     1  UNL1        0.0289
@<TRIPOS>BOND
     1    14    15    1
     2    15    13    1
     3    13    12    1
     4    12     2    1
     5     2     3   ar
     6     3     4   ar
     7     4     1    1
     8     1    16    1
     9    16    17    1
    10    17    18    1
    11    18    19    1
    12    19    22    1
    13    22    23    1
    14    23    24    1
    15    24    26    1
    16    26    27    2
    17    26    28    2
    18    26    29    1
    19    29    30    1
    20    19    20    1
    21    20    21    1
    22     4     5   ar
    23     5     6   ar
    24     6     7   ar
    25     7     8   ar
    26     8     9   ar
    27     9    10   ar
    28    10    11   ar
    29    11     2   ar
    30    21    16    1
    31    10     5   ar
    32    24    25    1
@<TRIPOS>MOLECULE
*****
 30 32 0 0 0
SMALL
GASTEIGER

@<TRIPOS>ATOM
      1 O         140.4727  140.5738  164.4726 O.3     1  UNL1       -0.4776
      2 C         141.4783  144.2561  163.3867 C.ar    1  UNL1       -0.0191
      3 C         140.6465  143.0732  163.7852 C.ar    1  UNL1        0.0342
      4 C         141.3046  141.7566  164.0740 C.ar    1  UNL1        0.1555
      5 C         142.7946  141.6228  163.9642 C.ar    1  UNL1        0.1151
      6 N         143.4527  140.3062  164.2530 N.ar    1  UNL1       -0.2408
      7 C         144.9426  140.1725  164.1432 C.ar    1  UNL1        0.0989
      8 C         145.7745  141.3553  163.7446 C.ar    1  UNL1        0.0207
      9 C         145.1164  142.6719  163.4558 C.ar    1  UNL1        0.0032
     10 C         143.6265  142.8057  163.5656 C.ar    1  UNL1        0.0204
     11 C         142.9683  144.1223  163.2768 C.ar    1  UNL1       -0.0026
     12 C         140.8202  145.5727  163.0979 C.3     1  UNL1        0.0265
     13 C         140.1483  145.8014  161.7764 C.3     1  UNL1        0.0047
     14 C         140.2333  144.0065  159.9001 C.3     1  UNL1        0.0000
     15 C         140.7651  145.2652  160.5187 C.3     1  UNL1        0.0003
     16 C         140.0696  140.3890  165.9056 C.3     1  UNL1        0.1688
     17 C         140.8638  141.0414  166.9982 C.3     1  UNL1        0.0609
     18 C         140.4607  140.8567  168.4311 C.3     1  UNL1        0.0758
     19 N         139.2636  140.0195  168.7715 N.3     1  UNL1       -0.2712
     20 C         138.4694  139.3670  167.6790 C.3     1  UNL1        0.0758
     21 C         138.8725  139.5518  166.2460 C.3     1  UNL1        0.0609
     22 C         138.8605  139.8347  170.2045 C.3     1  UNL1        0.0911
     23 C         137.4077  139.7981  170.5763 C.3     1  UNL1        0.1084
     24 N         136.6762  138.4891  170.6148 N.3     1  UNL1       -0.1819
     25 H         137.3529  137.7663  170.3698 H       1  UNL1        0.1485
     26 S         136.0043  138.0425  171.8793 S.O2    1  UNL1        0.0408
     27 O         136.4284  136.6300  171.6058 O.2     1  UNL1       -0.1575
     28 O         135.5801  139.4551  172.1528 O.2     1  UNL1       -0.1575
     29 C         135.3323  137.5960  173.1439 C.3     1  UNL1        0.1689
     30 C         135.7793  136.3374  173.8266 C.3     1  UNL1        0.0289
@<TRIPOS>BOND
     1    14    15    1
     2    15    13    1
     3    13    12    1
     4    12     2    1
     5     2     3   ar
     6     3     4   ar
     7     4     1    1
     8     1    16    1
     9    16    17    1
    10    17    18    1
    11    18    19    1
    12    19    22    1
    13    22    23    1
    14    23    24    1
    15    24    26    1
    16    26    27    2
    17    26    28    2
    18    26    29    1
    19    29    30    1
    20    19    20    1
    21    20    21    1
    22     4     5   ar
    23     5     6   ar
    24     6     7   ar
    25     7     8   ar
    26     8     9   ar
    27     9    10   ar
    28    10    11   ar
    29    11     2   ar
    30    21    16    1
    31    10     5   ar
    32    24    25    1
@<TRIPOS>MOLECULE
*****
 30 32 0 0 0
SMALL
GASTEIGER

@<TRIPOS>ATOM
      1 O         142.5874  141.9834  165.9638 O.3     1  UNL1       -0.4776
      2 C         139.4929  139.9766  167.4288 C.ar    1  UNL1       -0.0191
      3 C         140.4822  140.5418  166.4532 C.ar    1  UNL1        0.0342
      4 C         141.5982  141.4182  166.9394 C.ar    1  UNL1        0.1555
      5 C         141.7249  141.7294  168.4014 C.ar    1  UNL1        0.1151
      6 N         142.8409  142.6059  168.8876 N.ar    1  UNL1       -0.2408
      7 C         142.9675  142.9170  170.3494 C.ar    1  UNL1        0.0989
      8 C         141.9783  142.3518  171.3251 C.ar    1  UNL1        0.0207
      9 C         140.8623  141.4754  170.8388 C.ar    1  UNL1        0.0032
     10 C         140.7356  141.1642  169.3770 C.ar    1  UNL1        0.0204
     11 C         139.6196  140.2877  168.8907 C.ar    1  UNL1       -0.0026
     12 C         138.3769  139.1001  166.9425 C.3     1  UNL1        0.0265
     13 C         138.2285  138.8189  165.4766 C.3     1  UNL1        0.0047
     14 C         139.0472  137.5450  163.3654 C.3     1  UNL1        0.0000
     15 C         138.9532  137.6604  164.8580 C.3     1  UNL1        0.0003
     16 C         142.1223  142.4814  164.6275 C.3     1  UNL1        0.1688
     17 C         141.4800  143.8321  164.5125 C.3     1  UNL1        0.0609
     18 C         141.0149  144.3300  163.1762 C.3     1  UNL1        0.0758
     19 N         141.1920  143.4773  161.9549 N.3     1  UNL1       -0.2712
     20 C         141.8342  142.1266  162.0699 C.3     1  UNL1        0.0758
     21 C         142.2994  141.6286  163.4063 C.3     1  UNL1        0.0609
     22 C         140.7269  143.9752  160.6186 C.3     1  UNL1        0.0911
     23 C         139.6373  143.2500  159.8858 C.3     1  UNL1        0.1084
     24 N         138.2570  143.1832  160.4691 N.3     1  UNL1       -0.1819
     25 H         137.6554  142.7715  159.7556 H       1  UNL1        0.1485
     26 S         138.0141  142.4167  161.7353 S.O2    1  UNL1        0.0408
     27 O         138.3574  141.1394  161.0279 O.2     1  UNL1       -0.1575
     28 O         137.6709  143.6941  162.4427 O.2     1  UNL1       -0.1575
     29 C         137.7713  141.6502  163.0016 C.3     1  UNL1        0.1689
     30 C         138.0169  142.3006  164.3308 C.3     1  UNL1        0.0289
@<TRIPOS>BOND
     1    14    15    1
     2    15    13    1
     3    13    12    1
     4    12     2    1
     5     2     3   ar
     6     3     4   ar
     7     4     1    1
     8     1    16    1
     9    16    17    1
    10    17    18    1
    11    18    19    1
    12    19    22    1
    13    22    23    1
    14    23    24    1
    15    24    26    1
    16    26    27    2
    17    26    28    2
    18    26    29    1
    19    29    30    1
    20    19    20    1
    21    20    21    1
    22     4     5   ar
    23     5     6   ar
    24     6     7   ar
    25     7     8   ar
    26     8     9   ar
    27     9    10   ar
    28    10    11   ar
    29    11     2   ar
    30    21    16    1
    31    10     5   ar
    32    24    25    1
@<TRIPOS>MOLECULE
*****
 30 32 0 0 0
SMALL
GASTEIGER

@<TRIPOS>ATOM
      1 O         139.2617  141.8238  166.2476 O.3     1  UNL1       -0.4776
      2 C         142.2450  139.2300  165.8979 C.ar    1  UNL1       -0.0191
      3 C         141.0715  140.0961  165.5477 C.ar    1  UNL1        0.0342
      4 C         140.4353  140.9577  166.5979 C.ar    1  UNL1        0.1555
      5 C         140.9726  140.9531  167.9984 C.ar    1  UNL1        0.1151
      6 N         140.3364  141.8147  169.0486 N.ar    1  UNL1       -0.2408
      7 C         140.8737  141.8101  170.4490 C.ar    1  UNL1        0.0989
      8 C         142.0472  140.9440  170.7992 C.ar    1  UNL1        0.0207
      9 C         142.6834  140.0824  169.7491 C.ar    1  UNL1        0.0032
     10 C         142.1461  140.0870  168.3486 C.ar    1  UNL1        0.0204
     11 C         142.7823  139.2254  167.2984 C.ar    1  UNL1       -0.0026
     12 C         142.8812  138.3684  164.8477 C.3     1  UNL1        0.0265
     13 C         142.1902  138.1543  163.5336 C.3     1  UNL1        0.0047
     14 C         139.6986  137.5976  163.0520 C.3     1  UNL1        0.0000
     15 C         141.0812  137.1503  163.4243 C.3     1  UNL1        0.0003
     16 C         139.3961  142.8758  165.1869 C.3     1  UNL1        0.1688
     17 C         138.2644  143.1309  164.2359 C.3     1  UNL1        0.0609
     18 C         138.3988  144.1829  163.1752 C.3     1  UNL1        0.0758
     19 N         139.6648  144.9799  163.0654 N.3     1  UNL1       -0.2712
     20 C         140.7965  144.7248  164.0163 C.3     1  UNL1        0.0758
     21 C         140.6621  143.6728  165.0771 C.3     1  UNL1        0.0609
     22 C         139.7992  146.0319  162.0047 C.3     1  UNL1        0.0911
     23 C         140.2736  145.6566  160.6320 C.3     1  UNL1        0.1084
     24 N         141.6964  145.2315  160.4204 N.3     1  UNL1       -0.1819
     25 H         142.2710  145.8107  161.0326 H       1  UNL1        0.1485
     26 S         142.0986  143.8079  160.6684 S.O2    1  UNL1        0.0408
     27 O         140.9517  143.3369  159.8241 O.2     1  UNL1       -0.1575
     28 O         143.2454  144.2789  161.5127 O.2     1  UNL1       -0.1575
     29 C         142.5008  142.3842  160.9165 C.3     1  UNL1        0.1689
     30 C         143.0584  141.9839  162.2502 C.3     1  UNL1        0.0289
@<TRIPOS>BOND
     1    14    15    1
     2    15    13    1
     3    13    12    1
     4    12     2    1
     5     2     3   ar
     6     3     4   ar
     7     4     1    1
     8     1    16    1
     9    16    17    1
    10    17    18    1
    11    18    19    1
    12    19    22    1
    13    22    23    1
    14    23    24    1
    15    24    26    1
    16    26    27    2
    17    26    28    2
    18    26    29    1
    19    29    30    1
    20    19    20    1
    21    20    21    1
    22     4     5   ar
    23     5     6   ar
    24     6     7   ar
    25     7     8   ar
    26     8     9   ar
    27     9    10   ar
    28    10    11   ar
    29    11     2   ar
    30    21    16    1
    31    10     5   ar
    32    24    25    1
@<TRIPOS>MOLECULE
*****
 30 32 0 0 0
SMALL
GASTEIGER

@<TRIPOS>ATOM
      1 O         138.8484  140.9661  165.5905 O.3     1  UNL1       -0.4776
      2 C         140.8521  140.2113  168.9319 C.ar    1  UNL1       -0.0191
      3 C         139.7703  140.6747  168.0019 C.ar    1  UNL1        0.0342
      4 C         139.9302  140.5026  166.5205 C.ar    1  UNL1        0.1555
      5 C         141.1720  139.8671  165.9689 C.ar    1  UNL1        0.1151
      6 N         141.3318  139.6950  164.4874 N.ar    1  UNL1       -0.2408
      7 C         142.5735  139.0595  163.9359 C.ar    1  UNL1        0.0989
      8 C         143.6554  138.5960  164.8659 C.ar    1  UNL1        0.0207
      9 C         143.4955  138.7681  166.3474 C.ar    1  UNL1        0.0032
     10 C         142.2538  139.4036  166.8989 C.ar    1  UNL1        0.0204
     11 C         142.0939  139.5757  168.3804 C.ar    1  UNL1       -0.0026
     12 C         140.6922  140.3834  170.4134 C.3     1  UNL1        0.0265
     13 C         141.4276  141.4803  171.1247 C.3     1  UNL1        0.0047
     14 C         143.4660  142.6012  169.9679 C.3     1  UNL1        0.0000
     15 C         142.0141  142.6189  170.3441 C.3     1  UNL1        0.0003
     16 C         139.0565  142.1898  164.7485 C.3     1  UNL1        0.1688
     17 C         138.3217  142.3403  163.4494 C.3     1  UNL1        0.0609
     18 C         138.5299  143.5641  162.6074 C.3     1  UNL1        0.0758
     19 N         139.4729  144.6374  163.0643 N.3     1  UNL1       -0.2712
     20 C         140.2077  144.4869  164.3633 C.3     1  UNL1        0.0758
     21 C         139.9995  143.2631  165.2054 C.3     1  UNL1        0.0609
     22 C         139.6810  145.8611  162.2223 C.3     1  UNL1        0.0911
     23 C         140.1843  145.7269  160.8155 C.3     1  UNL1        0.1084
     24 N         141.6050  145.3174  160.5631 N.3     1  UNL1       -0.1819
     25 H         142.1954  145.9660  161.0839 H       1  UNL1        0.1485
     26 S         142.0616  143.9340  160.9204 S.O2    1  UNL1        0.0408
     27 O         141.0071  143.3547  160.0246 O.2     1  UNL1       -0.1575
     28 O         143.1160  144.5133  161.8161 O.2     1  UNL1       -0.1575
     29 C         142.5181  142.5505  161.2777 C.3     1  UNL1        0.1689
     30 C         141.5496  141.4060  161.2324 C.3     1  UNL1        0.0289
@<TRIPOS>BOND
     1    14    15    1
     2    15    13    1
     3    13    12    1
     4    12     2    1
     5     2     3   ar
     6     3     4   ar
     7     4     1    1
     8     1    16    1
     9    16    17    1
    10    17    18    1
    11    18    19    1
    12    19    22    1
    13    22    23    1
    14    23    24    1
    15    24    26    1
    16    26    27    2
    17    26    28    2
    18    26    29    1
    19    29    30    1
    20    19    20    1
    21    20    21    1
    22     4     5   ar
    23     5     6   ar
    24     6     7   ar
    25     7     8   ar
    26     8     9   ar
    27     9    10   ar
    28    10    11   ar
    29    11     2   ar
    30    21    16    1
    31    10     5   ar
    32    24    25    1
@<TRIPOS>MOLECULE
*****
 30 32 0 0 0
SMALL
GASTEIGER

@<TRIPOS>ATOM
      1 O         143.0333  140.4187  165.2885 O.3     1  UNL1       -0.4776
      2 C         141.7973  140.4951  169.0589 C.ar    1  UNL1       -0.0191
      3 C         142.6818  140.6246  167.8544 C.ar    1  UNL1        0.0342
      4 C         142.1488  140.2892  166.4930 C.ar    1  UNL1        0.1555
      5 C         140.7313  139.8242  166.3361 C.ar    1  UNL1        0.1151
      6 N         140.1983  139.4888  164.9748 N.ar    1  UNL1       -0.2408
      7 C         138.7809  139.0239  164.8180 C.ar    1  UNL1        0.0989
      8 C         137.8964  138.8943  166.0225 C.ar    1  UNL1        0.0207
      9 C         138.4294  139.2298  167.3839 C.ar    1  UNL1        0.0032
     10 C         139.8468  139.6947  167.5407 C.ar    1  UNL1        0.0204
     11 C         140.3799  140.0302  168.9021 C.ar    1  UNL1       -0.0026
     12 C         142.3304  140.8305  170.4204 C.3     1  UNL1        0.0265
     13 C         142.0285  142.1646  171.0362 C.3     1  UNL1        0.0047
     14 C         140.4451  143.8575  169.8629 C.3     1  UNL1        0.0000
     15 C         141.8308  143.3669  170.1615 C.3     1  UNL1        0.0003
     16 C         142.7108  141.4273  164.2261 C.3     1  UNL1        0.1688
     17 C         142.2855  142.8131  164.6120 C.3     1  UNL1        0.0609
     18 C         141.9629  143.8217  163.5496 C.3     1  UNL1        0.0758
     19 N         142.0657  143.4446  162.1014 N.3     1  UNL1       -0.2712
     20 C         142.4909  142.0589  161.7156 C.3     1  UNL1        0.0758
     21 C         142.8135  141.0502  162.7779 C.3     1  UNL1        0.0609
     22 C         141.7431  144.4532  161.0391 C.3     1  UNL1        0.0911
     23 C         140.3235  144.8868  160.8227 C.3     1  UNL1        0.1084
     24 N         139.2166  143.8751  160.8580 N.3     1  UNL1       -0.1819
     25 H         139.6194  142.9875  160.5575 H       1  UNL1        0.1485
     26 S         138.4862  143.6071  162.1404 S.O2    1  UNL1        0.0408
     27 O         138.1766  145.0691  162.2696 O.2     1  UNL1       -0.1575
     28 O         138.7957  142.1452  162.0112 O.2     1  UNL1       -0.1575
     29 C         137.7557  143.3391  163.4229 C.3     1  UNL1        0.1689
     30 C         138.4853  142.7468  164.5919 C.3     1  UNL1        0.0289
@<TRIPOS>BOND
     1    14    15    1
     2    15    13    1
     3    13    12    1
     4    12     2    1
     5     2     3   ar
     6     3     4   ar
     7     4     1    1
     8     1    16    1
     9    16    17    1
    10    17    18    1
    11    18    19    1
    12    19    22    1
    13    22    23    1
    14    23    24    1
    15    24    26    1
    16    26    27    2
    17    26    28    2
    18    26    29    1
    19    29    30    1
    20    19    20    1
    21    20    21    1
    22     4     5   ar
    23     5     6   ar
    24     6     7   ar
    25     7     8   ar
    26     8     9   ar
    27     9    10   ar
    28    10    11   ar
    29    11     2   ar
    30    21    16    1
    31    10     5   ar
    32    24    25    1
@<TRIPOS>MOLECULE
*****
 30 32 0 0 0
SMALL
GASTEIGER

@<TRIPOS>ATOM
      1 O         143.3249  139.3966  166.2065 O.3     1  UNL1       -0.4776
      2 C         139.3743  139.6079  166.5191 C.ar    1  UNL1       -0.0191
      3 C         140.7419  139.4305  165.9291 C.ar    1  UNL1        0.0342
      4 C         141.9573  139.5739  166.7965 C.ar    1  UNL1        0.1555
      5 C         141.8050  139.8948  168.2539 C.ar    1  UNL1        0.1151
      6 N         143.0204  140.0383  169.1212 N.ar    1  UNL1       -0.2408
      7 C         142.8681  140.3591  170.5785 C.ar    1  UNL1        0.0989
      8 C         141.5004  140.5365  171.1685 C.ar    1  UNL1        0.0207
      9 C         140.2851  140.3930  170.3012 C.ar    1  UNL1        0.0032
     10 C         140.4374  140.0722  168.8439 C.ar    1  UNL1        0.0204
     11 C         139.2220  139.9287  167.9765 C.ar    1  UNL1       -0.0026
     12 C         138.1589  139.4644  165.6517 C.3     1  UNL1        0.0265
     13 C         138.0206  140.2959  164.4110 C.3     1  UNL1        0.0047
     14 C         137.6425  142.6351  163.3455 C.3     1  UNL1        0.0000
     15 C         138.1018  141.7912  164.4974 C.3     1  UNL1        0.0003
     16 C         143.7133  140.1549  164.9720 C.3     1  UNL1        0.1688
     17 C         143.9316  139.4241  163.6803 C.3     1  UNL1        0.0609
     18 C         144.3200  140.1825  162.4459 C.3     1  UNL1        0.0758
     19 N         144.4901  141.6717  162.5030 N.3     1  UNL1       -0.2712
     20 C         144.2719  142.4025  163.7945 C.3     1  UNL1        0.0758
     21 C         143.8834  141.6442  165.0291 C.3     1  UNL1        0.0609
     22 C         144.8785  142.4301  161.2685 C.3     1  UNL1        0.0911
     23 C         143.8281  142.8437  160.2808 C.3     1  UNL1        0.1084
     24 N         142.3758  142.6729  160.6147 N.3     1  UNL1       -0.1819
     25 H         142.2991  141.8189  161.1672 H       1  UNL1        0.1485
     26 S         141.6491  143.7449  161.3715 S.O2    1  UNL1        0.0408
     27 O         141.1177  142.7136  162.3222 O.2     1  UNL1       -0.1575
     28 O         142.1805  144.7762  160.4208 O.2     1  UNL1       -0.1575
     29 C         140.9225  144.8170  162.1282 C.3     1  UNL1        0.1689
     30 C         140.0736  145.8106  161.3920 C.3     1  UNL1        0.0289
@<TRIPOS>BOND
     1    14    15    1
     2    15    13    1
     3    13    12    1
     4    12     2    1
     5     2     3   ar
     6     3     4   ar
     7     4     1    1
     8     1    16    1
     9    16    17    1
    10    17    18    1
    11    18    19    1
    12    19    22    1
    13    22    23    1
    14    23    24    1
    15    24    26    1
    16    26    27    2
    17    26    28    2
    18    26    29    1
    19    29    30    1
    20    19    20    1
    21    20    21    1
    22     4     5   ar
    23     5     6   ar
    24     6     7   ar
    25     7     8   ar
    26     8     9   ar
    27     9    10   ar
    28    10    11   ar
    29    11     2   ar
    30    21    16    1
    31    10     5   ar
    32    24    25    1
@<TRIPOS>MOLECULE
*****
 30 32 0 0 0
SMALL
GASTEIGER

@<TRIPOS>ATOM
      1 O         139.7003  139.2543  166.3851 O.3     1  UNL1       -0.4776
      2 C         142.7171  141.8284  166.2345 C.ar    1  UNL1       -0.0191
      3 C         141.6443  140.8750  165.7985 C.ar    1  UNL1        0.0342
      4 C         140.7731  140.2077  166.8211 C.ar    1  UNL1        0.1555
      5 C         140.9746  140.4940  168.2798 C.ar    1  UNL1        0.1151
      6 N         140.1034  139.8267  169.3023 N.ar    1  UNL1       -0.2408
      7 C         140.3049  140.1129  170.7609 C.ar    1  UNL1        0.0989
      8 C         141.3777  141.0664  171.1969 C.ar    1  UNL1        0.0207
      9 C         142.2489  141.7336  170.1743 C.ar    1  UNL1        0.0032
     10 C         142.0474  141.4474  168.7157 C.ar    1  UNL1        0.0204
     11 C         142.9186  142.1147  167.6931 C.ar    1  UNL1       -0.0026
     12 C         143.5883  142.4957  165.2118 C.3     1  UNL1        0.0265
     13 C         144.0152  141.7448  163.9855 C.3     1  UNL1        0.0047
     14 C         144.9925  139.3778  164.4239 C.3     1  UNL1        0.0000
     15 C         145.1914  140.8158  164.0464 C.3     1  UNL1        0.0003
     16 C         139.1314  139.3477  165.0004 C.3     1  UNL1        0.1688
     17 C         138.2447  140.4995  164.6299 C.3     1  UNL1        0.0609
     18 C         137.6758  140.5929  163.2452 C.3     1  UNL1        0.0758
     19 N         137.9935  139.5345  162.2308 N.3     1  UNL1       -0.2712
     20 C         138.8801  138.3827  162.6013 C.3     1  UNL1        0.0758
     21 C         139.4491  138.2893  163.9861 C.3     1  UNL1        0.0609
     22 C         137.4246  139.6278  160.8461 C.3     1  UNL1        0.0911
     23 C         138.2267  140.2586  159.7466 C.3     1  UNL1        0.1084
     24 N         138.3456  141.7518  159.6668 N.3     1  UNL1       -0.1819
     25 H         137.4484  142.1349  159.9646 H       1  UNL1        0.1485
     26 S         139.4038  142.4631  160.4567 S.O2    1  UNL1        0.0408
     27 O         138.3533  143.3334  161.0804 O.2     1  UNL1       -0.1575
     28 O         140.4544  141.5928  159.8331 O.2     1  UNL1       -0.1575
     29 C         140.4622  143.1745  161.2467 C.3     1  UNL1        0.1689
     30 C         140.5605  142.9641  162.7286 C.3     1  UNL1        0.0289
@<TRIPOS>BOND
     1    14    15    1
     2    15    13    1
     3    13    12    1
     4    12     2    1
     5     2     3   ar
     6     3     4   ar
     7     4     1    1
     8     1    16    1
     9    16    17    1
    10    17    18    1
    11    18    19    1
    12    19    22    1
    13    22    23    1
    14    23    24    1
    15    24    26    1
    16    26    27    2
    17    26    28    2
    18    26    29    1
    19    29    30    1
    20    19    20    1
    21    20    21    1
    22     4     5   ar
    23     5     6   ar
    24     6     7   ar
    25     7     8   ar
    26     8     9   ar
    27     9    10   ar
    28    10    11   ar
    29    11     2   ar
    30    21    16    1
    31    10     5   ar
    32    24    25    1
