@<TRIPOS>MOLECULE
*****
 32 36 0 0 0
SMALL
GASTEIGER

@<TRIPOS>ATOM
      1 C         140.7375  140.6480  164.0600 C.3     1  UNL1        0.0339
      2 C         141.6392  141.2992  165.0664 C.ar    1  UNL1        0.0095
      3 C         142.8362  142.0781  164.6078 C.ar    1  UNL1        0.0730
      4 C         143.7379  142.7293  165.6142 C.ar    1  UNL1        0.1531
      5 F         144.9350  143.5082  165.1554 F       1  UNL1       -0.2029
      6 C         143.4426  142.6017  167.0792 C.ar    1  UNL1        0.0323
      7 C         142.2455  141.8229  167.5379 C.ar    1  UNL1        0.0182
      8 C         141.9501  141.6952  169.0030 C.ar    1  UNL1        0.0108
      9 C         140.7531  140.9164  169.4617 C.ar    1  UNL1        0.1092
     10 C         139.8514  140.2651  168.4553 C.ar    1  UNL1        0.2651
     11 O         138.6543  139.4862  168.9140 O.2     1  UNL1       -0.2668
     12 N         140.1467  140.3927  166.9902 N.ar    1  UNL1       -0.2975
     13 C         141.3438  141.1716  166.5315 C.ar    1  UNL1        0.0597
     14 N         143.1316  142.2057  163.1426 N.pl3   1  UNL1       -0.3059
     15 C         144.1100  141.3762  162.3650 C.3     1  UNL1        0.0909
     16 C         144.0836  141.8431  160.9397 C.3     1  UNL1        0.0244
     17 C         143.0889  142.9611  160.8366 C.3     1  UNL1        0.0344
     18 C         142.5006  143.1852  162.1980 C.3     1  UNL1        0.0921
     19 C         142.7432  143.7215  159.5906 C.3     1  UNL1        0.0406
     20 N         142.0563  144.9109  160.1935 N.3     1  UNL1       -0.3231
     21 C         142.6362  144.0688  158.1354 C.3     1  UNL1        0.0156
     22 C         143.3101  142.7962  158.5551 C.3     1  UNL1        0.0156
     23 H         142.0480  144.8199  161.2094 H       1  UNL1        0.1188
     24 H         141.0976  144.9607  159.8488 H       1  UNL1        0.1188
     25 C         140.4577  140.7887  170.9268 C.2     1  UNL1        0.2474
     26 N         139.9608  139.4865  171.4810 N.am    1  UNL1       -0.3252
     27 O         140.6591  141.9634  171.8376 O.2     1  UNL1       -0.2702
     28 H         139.8286  138.7155  170.8832 H       1  UNL1        0.1453
     29 H         139.7669  139.4027  172.4426 H       1  UNL1        0.1453
     30 C         139.2450  139.7415  165.9838 C.3     1  UNL1        0.0885
     31 C         138.8205  138.5255  165.2149 C.3     1  UNL1        0.0246
     32 C         138.1079  139.8294  165.0096 C.3     1  UNL1        0.0246
@<TRIPOS>BOND
     1     1     2    1
     2     2     3   ar
     3     3    14    1
     4    14    15    1
     5    15    16    1
     6    16    17    1
     7    17    19    1
     8    19    20    1
     9    19    21    1
    10    21    22    1
    11    17    18    1
    12     3     4   ar
    13     4     5    1
    14     4     6   ar
    15     6     7   ar
    16     7     8   ar
    17     8     9   ar
    18     9    25    1
    19    25    26   am
    20    25    27    2
    21     9    10   ar
    22    10    11    2
    23    10    12   ar
    24    12    30    1
    25    30    31    1
    26    31    32    1
    27    12    13   ar
    28    13     2   ar
    29    18    14    1
    30    13     7   ar
    31    22    19    1
    32    32    30    1
    33    20    23    1
    34    20    24    1
    35    26    28    1
    36    26    29    1
@<TRIPOS>MOLECULE
*****
 32 36 0 0 0
SMALL
GASTEIGER

@<TRIPOS>ATOM
      1 C         140.6117  140.6177  164.0237 C.3     1  UNL1        0.0339
      2 C         141.5548  141.2449  165.0072 C.ar    1  UNL1        0.0095
      3 C         142.7642  141.9857  164.5190 C.ar    1  UNL1        0.0730
      4 C         143.7073  142.6129  165.5024 C.ar    1  UNL1        0.1531
      5 F         144.9168  143.3538  165.0141 F       1  UNL1       -0.2029
      6 C         143.4410  142.4991  166.9742 C.ar    1  UNL1        0.0323
      7 C         142.2317  141.7582  167.4625 C.ar    1  UNL1        0.0182
      8 C         141.9653  141.6445  168.9343 C.ar    1  UNL1        0.0108
      9 C         140.7559  140.9036  169.4225 C.ar    1  UNL1        0.1092
     10 C         139.8128  140.2764  168.4390 C.ar    1  UNL1        0.2651
     11 O         138.6034  139.5355  168.9274 O.2     1  UNL1       -0.2668
     12 N         140.0791  140.3902  166.9673 N.ar    1  UNL1       -0.2975
     13 C         141.2886  141.1311  166.4790 C.ar    1  UNL1        0.0597
     14 N         143.0306  142.0995  163.0471 N.pl3   1  UNL1       -0.3059
     15 C         143.0129  143.3658  162.2432 C.3     1  UNL1        0.0909
     16 C         143.3327  143.0160  160.8201 C.3     1  UNL1        0.0244
     17 C         143.5481  141.5334  160.7445 C.3     1  UNL1        0.0344
     18 C         143.3613  140.9670  162.1208 C.3     1  UNL1        0.0921
     19 C         143.8901  140.7540  159.5093 C.3     1  UNL1        0.0406
     20 N         144.0825  139.3914  160.1061 N.3     1  UNL1       -0.3231
     21 C         144.1653  140.4480  158.0669 C.3     1  UNL1        0.0156
     22 C         143.8165  141.8461  158.4836 C.3     1  UNL1        0.0156
     23 H         143.9252  139.4359  161.1129 H       1  UNL1        0.1188
     24 H         145.0340  139.0719  159.9244 H       1  UNL1        0.1188
     25 C         140.4896  140.7898  170.8944 C.2     1  UNL1        0.2474
     26 N         139.9989  139.4945  171.4698 N.am    1  UNL1       -0.3252
     27 O         140.7141  141.9714  171.7907 O.2     1  UNL1       -0.2702
     28 H         139.8516  138.7189  170.8815 H       1  UNL1        0.1453
     29 H         139.8241  139.4198  172.4358 H       1  UNL1        0.1453
     30 C         139.1360  139.7631  165.9838 C.3     1  UNL1        0.0885
     31 C         138.0126  139.8912  164.9982 C.3     1  UNL1        0.0246
     32 C         138.6260  138.5488  165.2660 C.3     1  UNL1        0.0246
@<TRIPOS>BOND
     1     1     2    1
     2     2     3   ar
     3     3    14    1
     4    14    15    1
     5    15    16    1
     6    16    17    1
     7    17    19    1
     8    19    20    1
     9    19    21    1
    10    21    22    1
    11    17    18    1
    12     3     4   ar
    13     4     5    1
    14     4     6   ar
    15     6     7   ar
    16     7     8   ar
    17     8     9   ar
    18     9    25    1
    19    25    26   am
    20    25    27    2
    21     9    10   ar
    22    10    11    2
    23    10    12   ar
    24    12    30    1
    25    30    31    1
    26    31    32    1
    27    12    13   ar
    28    13     2   ar
    29    18    14    1
    30    13     7   ar
    31    22    19    1
    32    32    30    1
    33    20    23    1
    34    20    24    1
    35    26    28    1
    36    26    29    1
@<TRIPOS>MOLECULE
*****
 32 36 0 0 0
SMALL
GASTEIGER

@<TRIPOS>ATOM
      1 C         141.5829  140.7126  164.0183 C.3     1  UNL1        0.0339
      2 C         140.9723  141.6637  165.0045 C.ar    1  UNL1        0.0095
      3 C         140.1656  142.8316  164.5194 C.ar    1  UNL1        0.0730
      4 C         139.5550  143.7827  165.5056 C.ar    1  UNL1        0.1531
      5 F         138.7484  144.9506  165.0205 F       1  UNL1       -0.2029
      6 C         139.7511  143.5659  166.9768 C.ar    1  UNL1        0.0323
      7 C         140.5577  142.3980  167.4619 C.ar    1  UNL1        0.0182
      8 C         140.7538  142.1812  168.9332 C.ar    1  UNL1        0.0108
      9 C         141.5604  141.0133  169.4182 C.ar    1  UNL1        0.1092
     10 C         142.1710  140.0622  168.4320 C.ar    1  UNL1        0.2651
     11 O         142.9777  138.8942  168.9171 O.2     1  UNL1       -0.2668
     12 N         141.9750  140.2789  166.9608 N.ar    1  UNL1       -0.2975
     13 C         141.1683  141.4469  166.4757 C.ar    1  UNL1        0.0597
     14 N         139.9696  143.0484  163.0481 N.pl3   1  UNL1       -0.3059
     15 C         138.9561  142.3599  162.1828 C.3     1  UNL1        0.0909
     16 C         139.1127  142.8777  160.7838 C.3     1  UNL1        0.0244
     17 C         140.2230  143.8864  160.7845 C.3     1  UNL1        0.0344
     18 C         140.7525  143.9919  162.1839 C.3     1  UNL1        0.0921
     19 C         140.7169  144.6547  159.5946 C.3     1  UNL1        0.0406
     20 N         141.7386  145.5312  160.2563 N.3     1  UNL1       -0.3231
     21 C         140.8560  145.1185  158.1750 C.3     1  UNL1        0.0156
     22 C         139.8668  144.0449  158.5197 C.3     1  UNL1        0.0156
     23 H         141.7641  145.3288  161.2557 H       1  UNL1        0.1188
     24 H         141.4901  146.5101  160.1139 H       1  UNL1        0.1188
     25 C         141.7565  140.7964  170.8895 C.2     1  UNL1        0.2474
     26 N         143.0370  140.2015  171.3958 N.am    1  UNL1       -0.3252
     27 O         140.6720  141.1745  171.8544 O.2     1  UNL1       -0.2702
     28 H         143.7487  139.9534  170.7625 H       1  UNL1        0.1453
     29 H         143.1657  140.0592  172.3614 H       1  UNL1        0.1453
     30 C         142.5856  139.3278  165.9746 C.3     1  UNL1        0.0885
     31 C         142.4627  138.1361  165.0721 C.3     1  UNL1        0.0246
     32 C         143.7660  138.8723  165.1690 C.3     1  UNL1        0.0246
@<TRIPOS>BOND
     1     1     2    1
     2     2     3   ar
     3     3    14    1
     4    14    15    1
     5    15    16    1
     6    16    17    1
     7    17    19    1
     8    19    20    1
     9    19    21    1
    10    21    22    1
    11    17    18    1
    12     3     4   ar
    13     4     5    1
    14     4     6   ar
    15     6     7   ar
    16     7     8   ar
    17     8     9   ar
    18     9    25    1
    19    25    26   am
    20    25    27    2
    21     9    10   ar
    22    10    11    2
    23    10    12   ar
    24    12    30    1
    25    30    31    1
    26    31    32    1
    27    12    13   ar
    28    13     2   ar
    29    18    14    1
    30    13     7   ar
    31    22    19    1
    32    32    30    1
    33    20    23    1
    34    20    24    1
    35    26    28    1
    36    26    29    1
@<TRIPOS>MOLECULE
*****
 32 36 0 0 0
SMALL
GASTEIGER

@<TRIPOS>ATOM
      1 C         138.5740  142.0390  164.9057 C.3     1  UNL1        0.0339
      2 C         138.6563  140.6880  164.2593 C.ar    1  UNL1        0.0095
      3 C         138.7811  139.4571  165.1074 C.ar    1  UNL1        0.0730
      4 C         138.8634  138.1060  164.4610 C.ar    1  UNL1        0.1531
      5 F         138.9883  136.8752  165.3092 F       1  UNL1       -0.2029
      6 C         138.8209  137.9858  162.9664 C.ar    1  UNL1        0.0323
      7 C         138.6960  139.2167  162.1183 C.ar    1  UNL1        0.0182
      8 C         138.6535  139.0965  160.6237 C.ar    1  UNL1        0.0108
      9 C         138.5286  140.3273  159.7756 C.ar    1  UNL1        0.1092
     10 C         138.4463  141.6784  160.4220 C.ar    1  UNL1        0.2651
     11 O         138.3214  142.9093  159.5737 O.2     1  UNL1       -0.2668
     12 N         138.4889  141.7986  161.9165 N.ar    1  UNL1       -0.2975
     13 C         138.6137  140.5677  162.7647 C.ar    1  UNL1        0.0597
     14 N         138.8237  139.5773  166.6020 N.pl3   1  UNL1       -0.3059
     15 C         137.7941  139.0526  167.5584 C.3     1  UNL1        0.0909
     16 C         138.2373  139.3943  168.9501 C.3     1  UNL1        0.0244
     17 C         139.5409  140.1301  168.8538 C.3     1  UNL1        0.0344
     18 C         139.9033  140.2432  167.4026 C.3     1  UNL1        0.0921
     19 C         140.3416  140.6598  170.0063 C.3     1  UNL1        0.0406
     20 N         139.9377  139.6861  171.0734 N.3     1  UNL1       -0.3231
     21 C         141.2824  141.5277  170.7883 C.3     1  UNL1        0.0156
     22 C         141.0234  141.8176  169.3395 C.3     1  UNL1        0.0156
     23 H         139.2793  139.0104  170.6855 H       1  UNL1        0.1188
     24 H         139.4953  140.1888  171.8427 H       1  UNL1        0.1188
     25 C         138.4860  140.2072  158.2809 C.2     1  UNL1        0.2474
     26 N         137.2540  140.6175  157.5303 N.am    1  UNL1       -0.3252
     27 O         139.6756  139.6766  157.5370 O.2     1  UNL1       -0.2702
     28 H         136.4732  140.9658  158.0186 H       1  UNL1        0.1453
     29 H         137.2260  140.5387  156.5494 H       1  UNL1        0.1453
     30 C         138.4066  143.1497  162.5629 C.3     1  UNL1        0.0885
     31 C         137.5906  144.2488  163.1761 C.3     1  UNL1        0.0246
     32 C         139.0800  144.3906  163.0693 C.3     1  UNL1        0.0246
@<TRIPOS>BOND
     1     1     2    1
     2     2     3   ar
     3     3    14    1
     4    14    15    1
     5    15    16    1
     6    16    17    1
     7    17    19    1
     8    19    20    1
     9    19    21    1
    10    21    22    1
    11    17    18    1
    12     3     4   ar
    13     4     5    1
    14     4     6   ar
    15     6     7   ar
    16     7     8   ar
    17     8     9   ar
    18     9    25    1
    19    25    26   am
    20    25    27    2
    21     9    10   ar
    22    10    11    2
    23    10    12   ar
    24    12    30    1
    25    30    31    1
    26    31    32    1
    27    12    13   ar
    28    13     2   ar
    29    18    14    1
    30    13     7   ar
    31    22    19    1
    32    32    30    1
    33    20    23    1
    34    20    24    1
    35    26    28    1
    36    26    29    1
@<TRIPOS>MOLECULE
*****
 32 36 0 0 0
SMALL
GASTEIGER

@<TRIPOS>ATOM
      1 C         142.5101  141.3728  163.2964 C.3     1  UNL1        0.0339
      2 C         141.6464  141.9809  164.3614 C.ar    1  UNL1        0.0095
      3 C         140.7664  143.1511  164.0359 C.ar    1  UNL1        0.0730
      4 C         139.9027  143.7592  165.1009 C.ar    1  UNL1        0.1531
      5 F         139.0226  144.9296  164.7753 F       1  UNL1       -0.2029
      6 C         139.9191  143.1971  166.4915 C.ar    1  UNL1        0.0323
      7 C         140.7991  142.0269  166.8170 C.ar    1  UNL1        0.0182
      8 C         140.8155  141.4647  168.2076 C.ar    1  UNL1        0.0108
      9 C         141.6955  140.2944  168.5332 C.ar    1  UNL1        0.1092
     10 C         142.5592  139.6863  167.4681 C.ar    1  UNL1        0.2651
     11 O         143.4393  138.5160  167.7937 O.2     1  UNL1       -0.2668
     12 N         142.5428  140.2485  166.0776 N.ar    1  UNL1       -0.2975
     13 C         141.6628  141.4188  165.7520 C.ar    1  UNL1        0.0597
     14 N         140.7500  143.7134  162.6453 N.pl3   1  UNL1       -0.3059
     15 C         141.4804  144.9385  162.1809 C.3     1  UNL1        0.0909
     16 C         141.1822  145.1315  160.7236 C.3     1  UNL1        0.0244
     17 C         140.2674  144.0256  160.2873 C.3     1  UNL1        0.0344
     18 C         140.0004  143.1492  161.4750 C.3     1  UNL1        0.0921
     19 C         139.7165  143.8304  158.9058 C.3     1  UNL1        0.0406
     20 N         138.5351  142.9602  159.2171 N.3     1  UNL1       -0.3231
     21 C         139.5760  143.9374  157.4163 C.3     1  UNL1        0.0156
     22 C         140.7067  144.6328  158.1148 C.3     1  UNL1        0.0156
     23 H         138.4924  142.7917  160.2222 H       1  UNL1        0.1188
     24 H         138.6294  142.0707  158.7269 H       1  UNL1        0.1188
     25 C         141.7119  139.7322  169.9238 C.2     1  UNL1        0.2474
     26 N         143.0190  139.4572  170.6062 N.am    1  UNL1       -0.3252
     27 O         140.4211  139.4451  170.6319 O.2     1  UNL1       -0.2702
     28 H         143.8662  139.6457  170.1414 H       1  UNL1        0.1453
     29 H         143.0298  139.0882  171.5189 H       1  UNL1        0.1453
     30 C         143.4065  139.6404  165.0126 C.3     1  UNL1        0.0885
     31 C         144.7480  139.4848  164.3597 C.3     1  UNL1        0.0246
     32 C         143.5610  138.7427  163.8208 C.3     1  UNL1        0.0246
@<TRIPOS>BOND
     1     1     2    1
     2     2     3   ar
     3     3    14    1
     4    14    15    1
     5    15    16    1
     6    16    17    1
     7    17    19    1
     8    19    20    1
     9    19    21    1
    10    21    22    1
    11    17    18    1
    12     3     4   ar
    13     4     5    1
    14     4     6   ar
    15     6     7   ar
    16     7     8   ar
    17     8     9   ar
    18     9    25    1
    19    25    26   am
    20    25    27    2
    21     9    10   ar
    22    10    11    2
    23    10    12   ar
    24    12    30    1
    25    30    31    1
    26    31    32    1
    27    12    13   ar
    28    13     2   ar
    29    18    14    1
    30    13     7   ar
    31    22    19    1
    32    32    30    1
    33    20    23    1
    34    20    24    1
    35    26    28    1
    36    26    29    1
@<TRIPOS>MOLECULE
*****
 32 36 0 0 0
SMALL
GASTEIGER

@<TRIPOS>ATOM
      1 C         141.8154  140.9924  163.3965 C.3     1  UNL1        0.0339
      2 C         140.7636  142.0338  163.1529 C.ar    1  UNL1        0.0095
      3 C         139.5946  142.1515  164.0854 C.ar    1  UNL1        0.0730
      4 C         138.5428  143.1928  163.8418 C.ar    1  UNL1        0.1531
      5 F         137.3738  143.3105  164.7743 F       1  UNL1       -0.2029
      6 C         138.6600  144.1165  162.6658 C.ar    1  UNL1        0.0323
      7 C         139.8290  143.9987  161.7333 C.ar    1  UNL1        0.0182
      8 C         139.9463  144.9224  160.5572 C.ar    1  UNL1        0.0108
      9 C         141.1153  144.8047  159.6247 C.ar    1  UNL1        0.1092
     10 C         142.1671  143.7634  159.8683 C.ar    1  UNL1        0.2651
     11 O         143.3361  143.6457  158.9358 O.2     1  UNL1       -0.2668
     12 N         142.0499  142.8397  161.0443 N.ar    1  UNL1       -0.2975
     13 C         140.8808  142.9574  161.9769 C.ar    1  UNL1        0.0597
     14 N         139.4773  141.2278  165.2615 N.pl3   1  UNL1       -0.3059
     15 C         138.6541  139.9752  165.3202 C.3     1  UNL1        0.0909
     16 C         138.8307  139.3678  166.6803 C.3     1  UNL1        0.0244
     17 C         139.7630  140.2451  167.4622 C.3     1  UNL1        0.0344
     18 C         140.1626  141.3945  166.5853 C.3     1  UNL1        0.0921
     19 C         140.2161  140.0134  168.8732 C.3     1  UNL1        0.0406
     20 N         138.8947  140.0574  169.5816 N.3     1  UNL1       -0.3231
     21 C         141.1282  139.7665  170.0382 C.3     1  UNL1        0.0156
     22 C         141.6949  139.8890  168.6548 C.3     1  UNL1        0.0156
     23 H         138.1509  140.2231  168.9037 H       1  UNL1        0.1188
     24 H         138.9024  140.8109  170.2690 H       1  UNL1        0.1188
     25 C         141.2326  145.7284  158.4486 C.2     1  UNL1        0.2474
     26 N         142.5854  146.1638  157.9689 N.am    1  UNL1       -0.3252
     27 O         139.9969  146.2166  157.7523 O.2     1  UNL1       -0.2702
     28 H         143.3964  145.8433  158.4259 H       1  UNL1        0.1453
     29 H         142.6624  146.7700  157.1970 H       1  UNL1        0.1453
     30 C         143.1017  141.7984  161.2879 C.3     1  UNL1        0.0885
     31 C         143.6441  140.4200  161.0520 C.3     1  UNL1        0.0246
     32 C         144.3809  141.3731  161.9457 C.3     1  UNL1        0.0246
@<TRIPOS>BOND
     1     1     2    1
     2     2     3   ar
     3     3    14    1
     4    14    15    1
     5    15    16    1
     6    16    17    1
     7    17    19    1
     8    19    20    1
     9    19    21    1
    10    21    22    1
    11    17    18    1
    12     3     4   ar
    13     4     5    1
    14     4     6   ar
    15     6     7   ar
    16     7     8   ar
    17     8     9   ar
    18     9    25    1
    19    25    26   am
    20    25    27    2
    21     9    10   ar
    22    10    11    2
    23    10    12   ar
    24    12    30    1
    25    30    31    1
    26    31    32    1
    27    12    13   ar
    28    13     2   ar
    29    18    14    1
    30    13     7   ar
    31    22    19    1
    32    32    30    1
    33    20    23    1
    34    20    24    1
    35    26    28    1
    36    26    29    1
@<TRIPOS>MOLECULE
*****
 32 36 0 0 0
SMALL
GASTEIGER

@<TRIPOS>ATOM
      1 C         141.4926  141.2804  163.4010 C.3     1  UNL1        0.0339
      2 C         140.5590  140.3273  164.0865 C.ar    1  UNL1        0.0095
      3 C         139.8790  139.2468  163.2991 C.ar    1  UNL1        0.0730
      4 C         138.9453  138.2937  163.9845 C.ar    1  UNL1        0.1531
      5 F         138.2653  137.2132  163.1970 F       1  UNL1       -0.2029
      6 C         138.6916  138.4211  165.4574 C.ar    1  UNL1        0.0323
      7 C         139.3716  139.5017  166.2448 C.ar    1  UNL1        0.0182
      8 C         139.1179  139.6291  167.7177 C.ar    1  UNL1        0.0108
      9 C         139.7979  140.7096  168.5051 C.ar    1  UNL1        0.1092
     10 C         140.7316  141.6627  167.8197 C.ar    1  UNL1        0.2651
     11 O         141.4116  142.7433  168.6072 O.2     1  UNL1       -0.2668
     12 N         140.9853  141.5353  166.3468 N.ar    1  UNL1       -0.2975
     13 C         140.3053  140.4548  165.5593 C.ar    1  UNL1        0.0597
     14 N         140.1326  139.1194  161.8261 N.pl3   1  UNL1       -0.3059
     15 C         139.1957  139.5349  160.7309 C.3     1  UNL1        0.0909
     16 C         139.8517  139.2264  159.4177 C.3     1  UNL1        0.0244
     17 C         141.1941  138.6201  159.7014 C.3     1  UNL1        0.0344
     18 C         141.3677  138.5540  161.1898 C.3     1  UNL1        0.0921
     19 C         142.1884  138.1607  158.6765 C.3     1  UNL1        0.0406
     20 N         143.4597  138.3230  159.4558 N.3     1  UNL1       -0.3231
     21 C         142.7410  137.6448  157.3810 C.3     1  UNL1        0.0156
     22 C         141.2623  137.8387  157.5413 C.3     1  UNL1        0.0156
     23 H         143.2443  138.6773  160.3877 H       1  UNL1        0.1188
     24 H         144.0717  138.9821  158.9746 H       1  UNL1        0.1188
     25 C         139.5442  140.8371  169.9781 C.2     1  UNL1        0.2474
     26 N         139.3826  142.1940  170.5966 N.am    1  UNL1       -0.3252
     27 O         139.4522  139.6076  170.8324 O.2     1  UNL1       -0.2702
     28 H         139.4430  143.0009  170.0359 H       1  UNL1        0.1453
     29 H         139.2161  142.2776  171.5633 H       1  UNL1        0.1453
     30 C         141.9190  142.4884  165.6614 C.3     1  UNL1        0.0885
     31 C         143.3144  142.9272  165.3296 C.3     1  UNL1        0.0246
     32 C         142.1406  143.7004  164.8059 C.3     1  UNL1        0.0246
@<TRIPOS>BOND
     1     1     2    1
     2     2     3   ar
     3     3    14    1
     4    14    15    1
     5    15    16    1
     6    16    17    1
     7    17    19    1
     8    19    20    1
     9    19    21    1
    10    21    22    1
    11    17    18    1
    12     3     4   ar
    13     4     5    1
    14     4     6   ar
    15     6     7   ar
    16     7     8   ar
    17     8     9   ar
    18     9    25    1
    19    25    26   am
    20    25    27    2
    21     9    10   ar
    22    10    11    2
    23    10    12   ar
    24    12    30    1
    25    30    31    1
    26    31    32    1
    27    12    13   ar
    28    13     2   ar
    29    18    14    1
    30    13     7   ar
    31    22    19    1
    32    32    30    1
    33    20    23    1
    34    20    24    1
    35    26    28    1
    36    26    29    1
@<TRIPOS>MOLECULE
*****
 32 36 0 0 0
SMALL
GASTEIGER

@<TRIPOS>ATOM
      1 C         142.2666  141.7099  163.8390 C.3     1  UNL1        0.0339
      2 C         141.3513  140.9545  164.7564 C.ar    1  UNL1        0.0095
      3 C         140.2299  140.1354  164.1894 C.ar    1  UNL1        0.0730
      4 C         139.3146  139.3801  165.1068 C.ar    1  UNL1        0.1531
      5 F         138.1932  138.5609  164.5397 F       1  UNL1       -0.2029
      6 C         139.5206  139.4438  166.5911 C.ar    1  UNL1        0.0323
      7 C         140.6420  140.2630  167.1581 C.ar    1  UNL1        0.0182
      8 C         140.8481  140.3268  168.6426 C.ar    1  UNL1        0.0108
      9 C         141.9695  141.1459  169.2096 C.ar    1  UNL1        0.1092
     10 C         142.8848  141.9012  168.2922 C.ar    1  UNL1        0.2651
     11 O         144.0062  142.7204  168.8592 O.2     1  UNL1       -0.2668
     12 N         142.6788  141.8375  166.8078 N.ar    1  UNL1       -0.2975
     13 C         141.5573  141.0183  166.2407 C.ar    1  UNL1        0.0597
     14 N         140.0238  140.0716  162.7049 N.pl3   1  UNL1       -0.3059
     15 C         140.5790  139.0277  161.7818 C.3     1  UNL1        0.0909
     16 C         140.1247  139.3514  160.3893 C.3     1  UNL1        0.0244
     17 C         139.2888  140.5954  160.4519 C.3     1  UNL1        0.0344
     18 C         139.2265  141.0405  161.8830 C.3     1  UNL1        0.0921
     19 C         138.6308  141.2749  159.2878 C.3     1  UNL1        0.0406
     20 N         138.0402  140.0849  158.5914 N.3     1  UNL1       -0.3231
     21 C         138.1779  142.3678  158.3656 C.3     1  UNL1        0.0156
     22 C         138.9929  142.7009  159.5800 C.3     1  UNL1        0.0156
     23 H         138.2679  139.2383  159.1127 H       1  UNL1        0.1188
     24 H         138.4240  140.0175  157.6488 H       1  UNL1        0.1188
     25 C         142.1756  141.2097  170.6940 C.2     1  UNL1        0.2474
     26 N         143.0023  140.1642  171.3820 N.am    1  UNL1       -0.3252
     27 O         141.5548  142.3190  171.4904 O.2     1  UNL1       -0.2702
     28 H         143.4097  139.4362  170.8594 H       1  UNL1        0.1453
     29 H         143.1376  140.2061  172.3563 H       1  UNL1        0.1453
     30 C         143.5941  142.5928  165.8904 C.3     1  UNL1        0.0885
     31 C         144.0191  143.8818  165.2518 C.3     1  UNL1        0.0246
     32 C         144.7545  142.6121  164.9401 C.3     1  UNL1        0.0246
@<TRIPOS>BOND
     1     1     2    1
     2     2     3   ar
     3     3    14    1
     4    14    15    1
     5    15    16    1
     6    16    17    1
     7    17    19    1
     8    19    20    1
     9    19    21    1
    10    21    22    1
    11    17    18    1
    12     3     4   ar
    13     4     5    1
    14     4     6   ar
    15     6     7   ar
    16     7     8   ar
    17     8     9   ar
    18     9    25    1
    19    25    26   am
    20    25    27    2
    21     9    10   ar
    22    10    11    2
    23    10    12   ar
    24    12    30    1
    25    30    31    1
    26    31    32    1
    27    12    13   ar
    28    13     2   ar
    29    18    14    1
    30    13     7   ar
    31    22    19    1
    32    32    30    1
    33    20    23    1
    34    20    24    1
    35    26    28    1
    36    26    29    1
@<TRIPOS>MOLECULE
*****
 32 36 0 0 0
SMALL
GASTEIGER

@<TRIPOS>ATOM
      1 C         140.5383  142.6294  164.9093 C.3     1  UNL1        0.0339
      2 C         141.7728  142.3595  164.1011 C.ar    1  UNL1        0.0095
      3 C         142.9078  141.5842  164.7016 C.ar    1  UNL1        0.0730
      4 C         144.1422  141.3142  163.8935 C.ar    1  UNL1        0.1531
      5 F         145.2772  140.5389  164.4941 F       1  UNL1       -0.2029
      6 C         144.2418  141.8196  162.4847 C.ar    1  UNL1        0.0323
      7 C         143.1069  142.5949  161.8841 C.ar    1  UNL1        0.0182
      8 C         143.2064  143.1004  160.4753 C.ar    1  UNL1        0.0108
      9 C         142.0714  143.8757  159.8748 C.ar    1  UNL1        0.1092
     10 C         140.8369  144.1456  160.6829 C.ar    1  UNL1        0.2651
     11 O         139.7019  144.9210  160.0823 O.2     1  UNL1       -0.2668
     12 N         140.7374  143.6403  162.0917 N.ar    1  UNL1       -0.2975
     13 C         141.8724  142.8649  162.6923 C.ar    1  UNL1        0.0597
     14 N         142.8082  141.0787  166.1105 N.pl3   1  UNL1       -0.3059
     15 C         142.7380  139.6397  166.5280 C.3     1  UNL1        0.0909
     16 C         142.6479  139.5951  168.0246 C.3     1  UNL1        0.0244
     17 C         142.6624  141.0067  168.5320 C.3     1  UNL1        0.0344
     18 C         142.7615  141.9235  167.3490 C.3     1  UNL1        0.0921
     19 C         142.5904  141.4274  169.9700 C.3     1  UNL1        0.0406
     20 N         143.4287  140.3536  170.5978 N.3     1  UNL1       -0.3231
     21 C         142.2272  142.2210  171.1899 C.3     1  UNL1        0.0156
     22 C         141.7270  142.6473  169.8415 C.3     1  UNL1        0.0156
     23 H         143.7603  139.7150  169.8750 H       1  UNL1        0.1188
     24 H         142.8683  139.8378  171.2762 H       1  UNL1        0.1188
     25 C         142.1709  144.3812  158.4659 C.2     1  UNL1        0.2474
     26 N         142.2012  145.8569  158.1990 N.am    1  UNL1       -0.3252
     27 O         142.2401  143.4108  157.3242 O.2     1  UNL1       -0.2702
     28 H         142.1558  146.4937  158.9483 H       1  UNL1        0.1453
     29 H         142.2665  146.1886  157.2743 H       1  UNL1        0.1453
     30 C         139.5029  143.9102  162.8999 C.3     1  UNL1        0.0885
     31 C         138.7892  144.6994  163.9571 C.3     1  UNL1        0.0246
     32 C         138.0784  143.5885  163.2425 C.3     1  UNL1        0.0246
@<TRIPOS>BOND
     1     1     2    1
     2     2     3   ar
     3     3    14    1
     4    14    15    1
     5    15    16    1
     6    16    17    1
     7    17    19    1
     8    19    20    1
     9    19    21    1
    10    21    22    1
    11    17    18    1
    12     3     4   ar
    13     4     5    1
    14     4     6   ar
    15     6     7   ar
    16     7     8   ar
    17     8     9   ar
    18     9    25    1
    19    25    26   am
    20    25    27    2
    21     9    10   ar
    22    10    11    2
    23    10    12   ar
    24    12    30    1
    25    30    31    1
    26    31    32    1
    27    12    13   ar
    28    13     2   ar
    29    18    14    1
    30    13     7   ar
    31    22    19    1
    32    32    30    1
    33    20    23    1
    34    20    24    1
    35    26    28    1
    36    26    29    1
