@<TRIPOS>MOLECULE
*****
 31 34 0 0 0
SMALL
GASTEIGER

@<TRIPOS>ATOM
      1 N         143.3860  142.3291  163.9732 N.3     1  UNL1       -0.2727
      2 C         142.1652  141.4983  163.7102 C.3     1  UNL1        0.0725
      3 C         141.3467  140.9840  164.8572 C.3     1  UNL1        0.0232
      4 C         141.7491  141.3006  166.2671 C.3     1  UNL1        0.0444
      5 C         142.9700  142.1314  166.5301 C.3     1  UNL1        0.0232
      6 C         143.7884  142.6457  165.3831 C.3     1  UNL1        0.0725
      7 C         142.0262  141.5343  167.7227 C.3     1  UNL1        0.1212
      8 N         140.9581  140.8404  168.5152 N.pl3   1  UNL1       -0.1777
      9 C         140.0209  140.1780  167.5493 C.ar    1  UNL1        0.1461
     10 N         138.7855  139.3525  167.7554 N.ar    1  UNL1       -0.2280
     11 C         138.0390  138.8115  166.5723 C.ar    1  UNL1        0.1003
     12 C         138.5278  139.0959  165.1829 C.ar    1  UNL1        0.0205
     13 C         139.7632  139.9213  164.9768 C.ar    1  UNL1        0.0002
     14 C         140.5097  140.4624  166.1600 C.ar    1  UNL1        0.0120
     15 S         140.8468  140.8138  170.0108 S.O2    1  UNL1        0.0599
     16 C         140.7355  140.7871  171.5064 C.3     1  UNL1        0.1999
     17 O         141.4901  139.4589  170.0345 O.2     1  UNL1       -0.1542
     18 O         140.2035  142.1687  169.9870 O.2     1  UNL1       -0.1542
     19 C         144.2046  142.8434  162.8262 C.3     1  UNL1        0.0721
     20 C         140.3146  145.3314  159.4323 C.2     1  UNL1        0.4049
     21 O         139.4872  146.3066  160.2162 O.2     1  UNL1       -0.2262
     22 N         141.4033  144.5551  160.1119 N.am    1  UNL1       -0.2460
     23 C         141.6646  144.7539  161.5755 C.3     1  UNL1        0.0968
     24 C         142.7533  143.9775  162.2553 C.3     1  UNL1        0.0230
     25 C         143.5807  143.0024  161.4714 C.3     1  UNL1        0.0180
     26 C         144.6248  141.9720  161.1580 C.3     1  UNL1        0.0015
     27 C         143.3194  142.8036  160.0077 C.3     1  UNL1        0.0230
     28 C         142.2307  143.5800  159.3281 C.3     1  UNL1        0.0968
     29 O         140.0533  145.1327  157.9687 O.3     1  UNL1       -0.4345
     30 C         139.2938  147.0922  156.4411 C.3     1  UNL1        0.0513
     31 C         140.3844  146.2226  156.9928 C.3     1  UNL1        0.2102
@<TRIPOS>BOND
     1    30    31    1
     2    31    29    1
     3    29    20    1
     4    20    21    2
     5    20    22   am
     6    22    23    1
     7    23    24    1
     8    24    25    1
     9    25    26    1
    10    25    19    1
    11    19     1    1
    12     1     2    1
    13     2     3    1
    14     3     4    1
    15     4     5    1
    16     5     6    1
    17     4     7    1
    18     7     8    1
    19     8    15    1
    20    15    16    1
    21    15    17    2
    22    15    18    2
    23     8     9    1
    24     9    10   ar
    25    10    11   ar
    26    11    12   ar
    27    12    13   ar
    28    13    14   ar
    29    25    27    1
    30    27    28    1
    31    28    22    1
    32     6     1    1
    33    14     9   ar
    34    14     4    1
@<TRIPOS>MOLECULE
*****
 31 34 0 0 0
SMALL
GASTEIGER

@<TRIPOS>ATOM
      1 N         140.6104  139.6639  163.6105 N.3     1  UNL1       -0.2727
      2 C         140.5921  141.1189  163.9748 C.3     1  UNL1        0.0725
      3 C         140.3502  142.1540  162.9166 C.3     1  UNL1        0.0232
      4 C         140.1265  141.7342  161.4940 C.3     1  UNL1        0.0444
      5 C         140.1447  140.2793  161.1297 C.3     1  UNL1        0.0232
      6 C         140.3866  139.2441  162.1879 C.3     1  UNL1        0.0725
      7 C         139.8883  141.4670  160.0373 C.3     1  UNL1        0.1212
      8 N         139.6948  142.7860  159.3496 N.pl3   1  UNL1       -0.1777
      9 C         139.8134  143.8684  160.3813 C.ar    1  UNL1        0.1461
     10 N         139.7130  145.3620  160.2853 N.ar    1  UNL1       -0.2280
     11 C         139.8793  146.2054  161.5143 C.ar    1  UNL1        0.1003
     12 C         140.1461  145.5554  162.8397 C.ar    1  UNL1        0.0205
     13 C         140.2466  144.0619  162.9358 C.ar    1  UNL1        0.0002
     14 C         140.0802  143.2184  161.7066 C.ar    1  UNL1        0.0120
     15 S         139.4293  142.9873  157.8871 S.O2    1  UNL1        0.0599
     16 C         139.1638  143.1885  156.4246 C.3     1  UNL1        0.1999
     17 O         137.9826  142.6560  158.1041 O.2     1  UNL1       -0.1542
     18 O         140.8762  143.3185  157.6701 O.2     1  UNL1       -0.1542
     19 C         140.8523  138.6287  164.6687 C.3     1  UNL1        0.0721
     20 C         140.1401  140.5901  170.0060 C.2     1  UNL1        0.4049
     21 O         138.6872  140.8470  170.2769 O.2     1  UNL1       -0.2262
     22 N         140.5729  140.0699  168.6673 N.am    1  UNL1       -0.2460
     23 C         139.5529  139.8066  167.5996 C.3     1  UNL1        0.0968
     24 C         139.9857  139.2864  166.2608 C.3     1  UNL1        0.0230
     25 C         141.4385  139.0296  165.9899 C.3     1  UNL1        0.0180
     26 C         142.6878  138.6335  165.2602 C.3     1  UNL1        0.0015
     27 C         142.4585  139.2929  167.0578 C.3     1  UNL1        0.0230
     28 C         142.0257  139.8131  168.3965 C.3     1  UNL1        0.0968
     29 O         141.1601  140.8534  171.0738 O.3     1  UNL1       -0.4345
     30 C         141.6423  143.1871  170.0387 C.3     1  UNL1        0.0513
     31 C         141.8991  142.1585  171.0998 C.3     1  UNL1        0.2102
@<TRIPOS>BOND
     1    30    31    1
     2    31    29    1
     3    29    20    1
     4    20    21    2
     5    20    22   am
     6    22    23    1
     7    23    24    1
     8    24    25    1
     9    25    26    1
    10    25    19    1
    11    19     1    1
    12     1     2    1
    13     2     3    1
    14     3     4    1
    15     4     5    1
    16     5     6    1
    17     4     7    1
    18     7     8    1
    19     8    15    1
    20    15    16    1
    21    15    17    2
    22    15    18    2
    23     8     9    1
    24     9    10   ar
    25    10    11   ar
    26    11    12   ar
    27    12    13   ar
    28    13    14   ar
    29    25    27    1
    30    27    28    1
    31    28    22    1
    32     6     1    1
    33    14     9   ar
    34    14     4    1
@<TRIPOS>MOLECULE
*****
 31 34 0 0 0
SMALL
GASTEIGER

@<TRIPOS>ATOM
      1 N         139.6814  143.4133  164.0210 N.3     1  UNL1       -0.2727
      2 C         140.5828  142.2655  163.6747 C.3     1  UNL1        0.0725
      3 C         141.2097  141.4487  164.7655 C.3     1  UNL1        0.0232
      4 C         140.9352  141.7798  166.2025 C.3     1  UNL1        0.0444
      5 C         140.0338  142.9276  166.5488 C.3     1  UNL1        0.0232
      6 C         139.4069  143.7443  165.4581 C.3     1  UNL1        0.0725
      7 C         140.7545  141.9904  167.6766 C.3     1  UNL1        0.1212
      8 N         141.5606  140.9497  168.3959 N.pl3   1  UNL1       -0.1777
      9 C         142.2395  140.0958  167.3662 C.ar    1  UNL1        0.1461
     10 N         143.1597  138.9175  167.4879 N.ar    1  UNL1       -0.2280
     11 C         143.6934  138.2522  166.2540 C.ar    1  UNL1        0.1003
     12 C         143.3069  138.7652  164.8984 C.ar    1  UNL1        0.0205
     13 C         142.3867  139.9435  164.7768 C.ar    1  UNL1        0.0002
     14 C         141.8530  140.6088  166.0107 C.ar    1  UNL1        0.0120
     15 S         141.6688  140.7907  169.8835 S.O2    1  UNL1        0.0599
     16 C         141.7769  140.6318  171.3711 C.3     1  UNL1        0.1999
     17 O         142.6318  141.9395  169.9362 O.2     1  UNL1       -0.1542
     18 O         140.7057  139.6419  169.8307 O.2     1  UNL1       -0.1542
     19 C         139.0544  144.2302  162.9302 C.3     1  UNL1        0.0721
     20 C         141.5081  144.9693  157.8045 C.2     1  UNL1        0.4049
     21 O         142.4704  146.1192  157.8487 O.2     1  UNL1       -0.2262
     22 N         140.7424  144.5844  159.0355 N.am    1  UNL1       -0.2460
     23 C         140.9389  145.3493  160.3107 C.3     1  UNL1        0.0968
     24 C         140.1732  144.9643  161.5418 C.3     1  UNL1        0.0230
     25 C         139.2110  143.8145  161.4976 C.3     1  UNL1        0.0180
     26 C         138.1943  142.8090  161.9509 C.3     1  UNL1        0.0015
     27 C         139.0144  143.0496  160.2222 C.3     1  UNL1        0.0230
     28 C         139.7802  143.4346  158.9912 C.3     1  UNL1        0.0968
     29 O         141.3117  144.2045  156.5292 O.3     1  UNL1       -0.4345
     30 C         139.6678  146.0156  155.6532 C.3     1  UNL1        0.0513
     31 C         140.2753  144.6489  155.5401 C.3     1  UNL1        0.2102
@<TRIPOS>BOND
     1    30    31    1
     2    31    29    1
     3    29    20    1
     4    20    21    2
     5    20    22   am
     6    22    23    1
     7    23    24    1
     8    24    25    1
     9    25    26    1
    10    25    19    1
    11    19     1    1
    12     1     2    1
    13     2     3    1
    14     3     4    1
    15     4     5    1
    16     5     6    1
    17     4     7    1
    18     7     8    1
    19     8    15    1
    20    15    16    1
    21    15    17    2
    22    15    18    2
    23     8     9    1
    24     9    10   ar
    25    10    11   ar
    26    11    12   ar
    27    12    13   ar
    28    13    14   ar
    29    25    27    1
    30    27    28    1
    31    28    22    1
    32     6     1    1
    33    14     9   ar
    34    14     4    1
@<TRIPOS>MOLECULE
*****
 31 34 0 0 0
SMALL
GASTEIGER

@<TRIPOS>ATOM
      1 N         143.5390  140.2914  163.6038 N.3     1  UNL1       -0.2727
      2 C         142.2405  139.5406  163.6113 C.3     1  UNL1        0.0725
      3 C         141.3562  139.5837  164.8221 C.3     1  UNL1        0.0232
      4 C         141.7703  140.3777  166.0254 C.3     1  UNL1        0.0444
      5 C         143.0688  141.1286  166.0180 C.3     1  UNL1        0.0232
      6 C         143.9531  141.0855  164.8072 C.3     1  UNL1        0.0725
      7 C         142.0505  141.1247  167.2957 C.3     1  UNL1        0.1212
      8 N         140.9038  140.8901  168.2340 N.pl3   1  UNL1       -0.1777
      9 C         139.9150  139.9981  167.5435 C.ar    1  UNL1        0.1461
     10 N         138.5962  139.4333  167.9813 N.ar    1  UNL1       -0.2280
     11 C         137.8129  138.5519  167.0542 C.ar    1  UNL1        0.1003
     12 C         138.3484  138.2352  165.6893 C.ar    1  UNL1        0.0205
     13 C         139.6672  138.8000  165.2515 C.ar    1  UNL1        0.0002
     14 C         140.4505  139.6814  166.1786 C.ar    1  UNL1        0.0120
     15 S         140.7695  141.4492  169.6193 S.O2    1  UNL1        0.0599
     16 C         140.6353  142.0084  171.0047 C.3     1  UNL1        0.1999
     17 O         141.1683  140.1221  170.1936 O.2     1  UNL1       -0.1542
     18 O         140.3708  142.7764  169.0450 O.2     1  UNL1       -0.1542
     19 C         144.4234  140.2483  162.3930 C.3     1  UNL1        0.0721
     20 C         142.1814  144.0285  158.7154 C.2     1  UNL1        0.4049
     21 O         142.0888  145.3832  159.3528 O.2     1  UNL1       -0.2262
     22 N         142.7399  142.8717  159.4899 N.am    1  UNL1       -0.2460
     23 C         143.2058  143.0697  160.9019 C.3     1  UNL1        0.0968
     24 C         143.7644  141.9129  161.6765 C.3     1  UNL1        0.0230
     25 C         143.8570  140.5582  161.0391 C.3     1  UNL1        0.0180
     26 C         144.1462  139.0959  160.8719 C.3     1  UNL1        0.0015
     27 C         143.3910  140.3603  159.6271 C.3     1  UNL1        0.0230
     28 C         142.8324  141.5171  158.8525 C.3     1  UNL1        0.0968
     29 O         141.7154  143.8306  157.3034 O.3     1  UNL1       -0.4345
     30 C         142.5334  144.6240  154.9686 C.3     1  UNL1        0.0513
     31 C         141.8971  144.9244  156.2933 C.3     1  UNL1        0.2102
@<TRIPOS>BOND
     1    30    31    1
     2    31    29    1
     3    29    20    1
     4    20    21    2
     5    20    22   am
     6    22    23    1
     7    23    24    1
     8    24    25    1
     9    25    26    1
    10    25    19    1
    11    19     1    1
    12     1     2    1
    13     2     3    1
    14     3     4    1
    15     4     5    1
    16     5     6    1
    17     4     7    1
    18     7     8    1
    19     8    15    1
    20    15    16    1
    21    15    17    2
    22    15    18    2
    23     8     9    1
    24     9    10   ar
    25    10    11   ar
    26    11    12   ar
    27    12    13   ar
    28    13    14   ar
    29    25    27    1
    30    27    28    1
    31    28    22    1
    32     6     1    1
    33    14     9   ar
    34    14     4    1
@<TRIPOS>MOLECULE
*****
 31 34 0 0 0
SMALL
GASTEIGER

@<TRIPOS>ATOM
      1 N         140.0275  143.7142  163.8817 N.3     1  UNL1       -0.2727
      2 C         140.9826  142.5897  163.6113 C.3     1  UNL1        0.0725
      3 C         141.4450  141.7116  164.7360 C.3     1  UNL1        0.0232
      4 C         140.9522  141.9581  166.1312 C.3     1  UNL1        0.0444
      5 C         139.9971  143.0826  166.4016 C.3     1  UNL1        0.0232
      6 C         139.5348  143.9607  165.2768 C.3     1  UNL1        0.0725
      7 C         140.5477  142.0823  167.5703 C.3     1  UNL1        0.1212
      8 N         141.2458  141.0025  168.3429 N.pl3   1  UNL1       -0.1777
      9 C         142.0818  140.2110  167.3813 C.ar    1  UNL1        0.1461
     10 N         142.9847  139.0288  167.5737 N.ar    1  UNL1       -0.2280
     11 C         143.7062  138.4371  166.3993 C.ar    1  UNL1        0.1003
     12 C         143.5248  139.0276  165.0324 C.ar    1  UNL1        0.0205
     13 C         142.6218  140.2098  164.8400 C.ar    1  UNL1        0.0002
     14 C         141.9003  140.8015  166.0144 C.ar    1  UNL1        0.0120
     15 S         141.1286  140.7574  169.8181 S.O2    1  UNL1        0.0599
     16 C         141.0113  140.5123  171.2933 C.3     1  UNL1        0.1999
     17 O         142.2001  141.7757  170.0725 O.2     1  UNL1       -0.1542
     18 O         140.0569  139.7390  169.5636 O.2     1  UNL1       -0.1542
     19 C         139.5651  144.5924  162.7569 C.3     1  UNL1        0.0721
     20 C         138.2361  141.0697  158.4366 C.2     1  UNL1        0.4049
     21 O         137.1941  140.0821  158.8715 O.2     1  UNL1       -0.2262
     22 N         138.7443  142.0983  159.4028 N.am    1  UNL1       -0.2460
     23 C         138.2105  142.1394  160.8040 C.3     1  UNL1        0.0968
     24 C         138.7187  143.1682  161.7702 C.3     1  UNL1        0.0230
     25 C         139.7606  144.1556  161.3353 C.3     1  UNL1        0.0180
     26 C         140.7347  145.2948  161.3940 C.3     1  UNL1        0.0015
     27 C         140.2944  144.1144  159.9340 C.3     1  UNL1        0.0230
     28 C         139.7862  143.0858  158.9678 C.3     1  UNL1        0.0968
     29 O         138.7698  141.0284  157.0354 O.3     1  UNL1       -0.4345
     30 C         137.1032  142.7923  156.1073 C.3     1  UNL1        0.0513
     31 C         137.9478  141.5696  155.9034 C.3     1  UNL1        0.2102
@<TRIPOS>BOND
     1    30    31    1
     2    31    29    1
     3    29    20    1
     4    20    21    2
     5    20    22   am
     6    22    23    1
     7    23    24    1
     8    24    25    1
     9    25    26    1
    10    25    19    1
    11    19     1    1
    12     1     2    1
    13     2     3    1
    14     3     4    1
    15     4     5    1
    16     5     6    1
    17     4     7    1
    18     7     8    1
    19     8    15    1
    20    15    16    1
    21    15    17    2
    22    15    18    2
    23     8     9    1
    24     9    10   ar
    25    10    11   ar
    26    11    12   ar
    27    12    13   ar
    28    13    14   ar
    29    25    27    1
    30    27    28    1
    31    28    22    1
    32     6     1    1
    33    14     9   ar
    34    14     4    1
@<TRIPOS>MOLECULE
*****
 31 34 0 0 0
SMALL
GASTEIGER

@<TRIPOS>ATOM
      1 N         140.6553  139.5228  163.5125 N.3     1  UNL1       -0.2727
      2 C         140.0752  140.8869  163.2829 C.3     1  UNL1        0.0725
      3 C         140.6769  141.7937  162.2507 C.3     1  UNL1        0.0232
      4 C         141.8586  141.3364  161.4479 C.3     1  UNL1        0.0444
      5 C         142.4387  139.9724  161.6775 C.3     1  UNL1        0.0232
      6 C         141.8370  139.0655  162.7097 C.3     1  UNL1        0.0725
      7 C         143.0352  141.0187  160.5734 C.3     1  UNL1        0.1212
      8 N         143.2931  142.2062  159.6939 N.pl3   1  UNL1       -0.1777
      9 C         142.2759  143.2578  160.0248 C.ar    1  UNL1        0.1461
     10 N         142.0423  144.6354  159.4792 N.ar    1  UNL1       -0.2280
     11 C         140.9223  145.4754  160.0175 C.ar    1  UNL1        0.1003
     12 C         140.0357  144.9379  161.1015 C.ar    1  UNL1        0.0205
     13 C         140.2692  143.5603  161.6472 C.ar    1  UNL1        0.0002
     14 C         141.3893  142.7203  161.1089 C.ar    1  UNL1        0.0120
     15 S         144.3777  142.3218  158.6642 S.O2    1  UNL1        0.0599
     16 C         145.4624  142.4374  157.6346 C.3     1  UNL1        0.1999
     17 O         145.3487  142.7285  159.7327 O.2     1  UNL1       -0.1542
     18 O         143.4066  141.9151  157.5957 O.2     1  UNL1       -0.1542
     19 C         140.0536  138.6159  164.5448 C.3     1  UNL1        0.0721
     20 C         141.8854  140.3077  169.7045 C.2     1  UNL1        0.4049
     21 O         143.3794  140.2011  169.7875 O.2     1  UNL1       -0.2262
     22 N         141.1746  139.9179  168.4425 N.am    1  UNL1       -0.2460
     23 C         141.9578  139.4215  167.2634 C.3     1  UNL1        0.0968
     24 C         141.2469  139.0317  166.0013 C.3     1  UNL1        0.0230
     25 C         139.7531  139.1382  165.9183 C.3     1  UNL1        0.0180
     26 C         138.3635  139.0634  165.3583 C.3     1  UNL1        0.0015
     27 C         138.9699  139.6347  167.0975 C.3     1  UNL1        0.0230
     28 C         139.6808  140.0245  168.3595 C.3     1  UNL1        0.0968
     29 O         141.1024  140.8041  170.8836 O.3     1  UNL1       -0.4345
     30 C         139.7255  142.9925  170.6290 C.3     1  UNL1        0.0513
     31 C         140.9509  142.2781  171.1167 C.3     1  UNL1        0.2102
@<TRIPOS>BOND
     1    30    31    1
     2    31    29    1
     3    29    20    1
     4    20    21    2
     5    20    22   am
     6    22    23    1
     7    23    24    1
     8    24    25    1
     9    25    26    1
    10    25    19    1
    11    19     1    1
    12     1     2    1
    13     2     3    1
    14     3     4    1
    15     4     5    1
    16     5     6    1
    17     4     7    1
    18     7     8    1
    19     8    15    1
    20    15    16    1
    21    15    17    2
    22    15    18    2
    23     8     9    1
    24     9    10   ar
    25    10    11   ar
    26    11    12   ar
    27    12    13   ar
    28    13    14   ar
    29    25    27    1
    30    27    28    1
    31    28    22    1
    32     6     1    1
    33    14     9   ar
    34    14     4    1
@<TRIPOS>MOLECULE
*****
 31 34 0 0 0
SMALL
GASTEIGER

@<TRIPOS>ATOM
      1 N         141.8394  137.1863  156.6210 N.3     1  UNL1       -0.2727
      2 C         142.8632  136.3290  157.3042 C.3     1  UNL1        0.0725
      3 C         143.0055  134.8847  156.9252 C.3     1  UNL1        0.0232
      4 C         142.1239  134.2977  155.8629 C.3     1  UNL1        0.0444
      5 C         141.1001  135.1550  155.1797 C.3     1  UNL1        0.0232
      6 C         140.9578  136.5993  155.5588 C.3     1  UNL1        0.0725
      7 C         141.3176  133.5750  154.8249 C.3     1  UNL1        0.1212
      8 N         141.7929  132.1531  154.7758 N.pl3   1  UNL1       -0.1777
      9 C         142.8930  131.9970  155.7835 C.ar    1  UNL1        0.1461
     10 N         143.7348  130.8193  156.1762 N.ar    1  UNL1       -0.2280
     11 C         144.7812  130.9669  157.2407 C.ar    1  UNL1        0.1003
     12 C         144.9858  132.2924  157.9126 C.ar    1  UNL1        0.0205
     13 C         144.1440  133.4701  157.5200 C.ar    1  UNL1        0.0002
     14 C         143.0976  133.3224  156.4554 C.ar    1  UNL1        0.0120
     15 S         141.2615  131.0764  153.8768 S.O2    1  UNL1        0.0599
     16 C         140.7300  129.9996  152.9778 C.3     1  UNL1        0.1999
     17 O         142.3911  131.3176  152.9200 O.2     1  UNL1       -0.1542
     18 O         140.1317  130.8351  154.8337 O.2     1  UNL1       -0.1542
     19 C         141.6970  138.6307  157.0000 C.3     1  UNL1        0.0721
     20 C         139.5174  138.9559  162.2901 C.2     1  UNL1        0.4049
     21 O         138.1462  138.3487  162.3266 O.2     1  UNL1       -0.2262
     22 N         140.2903  138.9863  161.0049 N.am    1  UNL1       -0.2460
     23 C         139.6919  138.4094  159.7562 C.3     1  UNL1        0.0968
     24 C         140.4648  138.4397  158.4709 C.3     1  UNL1        0.0230
     25 C         141.8359  139.0469  158.4344 C.3     1  UNL1        0.0180
     26 C         143.1588  139.5096  157.8997 C.3     1  UNL1        0.0015
     27 C         142.4342  139.6238  159.6831 C.3     1  UNL1        0.0230
     28 C         141.6613  139.5934  160.9684 C.3     1  UNL1        0.0968
     29 O         140.1156  139.5328  163.5388 O.3     1  UNL1       -0.4345
     30 C         141.1085  137.2149  164.1647 C.3     1  UNL1        0.0513
     31 C         140.7887  138.6334  164.5328 C.3     1  UNL1        0.2102
@<TRIPOS>BOND
     1    30    31    1
     2    31    29    1
     3    29    20    1
     4    20    21    2
     5    20    22   am
     6    22    23    1
     7    23    24    1
     8    24    25    1
     9    25    26    1
    10    25    19    1
    11    19     1    1
    12     1     2    1
    13     2     3    1
    14     3     4    1
    15     4     5    1
    16     5     6    1
    17     4     7    1
    18     7     8    1
    19     8    15    1
    20    15    16    1
    21    15    17    2
    22    15    18    2
    23     8     9    1
    24     9    10   ar
    25    10    11   ar
    26    11    12   ar
    27    12    13   ar
    28    13    14   ar
    29    25    27    1
    30    27    28    1
    31    28    22    1
    32     6     1    1
    33    14     9   ar
    34    14     4    1
@<TRIPOS>MOLECULE
*****
 31 34 0 0 0
SMALL
GASTEIGER

@<TRIPOS>ATOM
      1 N         143.5800  141.1244  163.7263 N.3     1  UNL1       -0.2727
      2 C         142.3152  140.3248  163.6225 C.3     1  UNL1        0.0725
      3 C         141.4360  140.1526  164.8256 C.3     1  UNL1        0.0232
      4 C         141.8217  140.7799  166.1324 C.3     1  UNL1        0.0444
      5 C         143.0865  141.5795  166.2361 C.3     1  UNL1        0.0232
      6 C         143.9657  141.7518  165.0331 C.3     1  UNL1        0.0725
      7 C         142.0759  141.3452  167.4983 C.3     1  UNL1        0.1212
      8 N         140.9452  140.9268  168.3909 N.pl3   1  UNL1       -0.1777
      9 C         139.9922  140.1029  167.5765 C.ar    1  UNL1        0.1461
     10 N         138.7012  139.4236  167.9256 N.ar    1  UNL1       -0.2280
     11 C         137.9519  138.6537  166.8790 C.ar    1  UNL1        0.1003
     12 C         138.4936  138.5629  165.4831 C.ar    1  UNL1        0.0205
     13 C         139.7846  139.2421  165.1340 C.ar    1  UNL1        0.0002
     14 C         140.5339  140.0122  166.1807 C.ar    1  UNL1        0.0120
     15 S         140.7940  141.2717  169.8429 S.O2    1  UNL1        0.0599
     16 C         140.6429  141.6165  171.2948 C.3     1  UNL1        0.1999
     17 O         141.2587  139.8957  170.2181 O.2     1  UNL1       -0.1542
     18 O         140.3293  142.6477  169.4676 O.2     1  UNL1       -0.1542
     19 C         144.4593  141.2967  162.5232 C.3     1  UNL1        0.0721
     20 C         142.7999  138.6911  157.6964 C.2     1  UNL1        0.4049
     21 O         143.0829  137.2201  157.7748 O.2     1  UNL1       -0.2262
     22 N         143.1502  139.5849  158.8490 N.am    1  UNL1       -0.2460
     23 C         143.7835  139.0075  160.0800 C.3     1  UNL1        0.0968
     24 C         144.1339  139.9013  161.2327 C.3     1  UNL1        0.0230
     25 C         143.8509  141.3722  161.1542 C.3     1  UNL1        0.0180
     26 C         143.7792  142.8170  161.5512 C.3     1  UNL1        0.0015
     27 C         143.2175  141.9495  159.9231 C.3     1  UNL1        0.0230
     28 C         142.8672  141.0558  158.7705 C.3     1  UNL1        0.0968
     29 O         142.1666  139.2683  156.4652 O.3     1  UNL1       -0.4345
     30 C         143.9467  140.1796  154.8067 C.3     1  UNL1        0.0513
     31 C         142.8769  139.1847  155.1468 C.3     1  UNL1        0.2102
@<TRIPOS>BOND
     1    30    31    1
     2    31    29    1
     3    29    20    1
     4    20    21    2
     5    20    22   am
     6    22    23    1
     7    23    24    1
     8    24    25    1
     9    25    26    1
    10    25    19    1
    11    19     1    1
    12     1     2    1
    13     2     3    1
    14     3     4    1
    15     4     5    1
    16     5     6    1
    17     4     7    1
    18     7     8    1
    19     8    15    1
    20    15    16    1
    21    15    17    2
    22    15    18    2
    23     8     9    1
    24     9    10   ar
    25    10    11   ar
    26    11    12   ar
    27    12    13   ar
    28    13    14   ar
    29    25    27    1
    30    27    28    1
    31    28    22    1
    32     6     1    1
    33    14     9   ar
    34    14     4    1
@<TRIPOS>MOLECULE
*****
 31 34 0 0 0
SMALL
GASTEIGER

@<TRIPOS>ATOM
      1 N         142.1815  138.6069  158.8268 N.3     1  UNL1       -0.2727
      2 C         143.2898  138.8036  159.8182 C.3     1  UNL1        0.0725
      3 C         142.9773  138.9082  161.2815 C.3     1  UNL1        0.0232
      4 C         141.5564  138.8159  161.7534 C.3     1  UNL1        0.0444
      5 C         140.4481  138.6191  160.7621 C.3     1  UNL1        0.0232
      6 C         140.7606  138.5146  159.2987 C.3     1  UNL1        0.0725
      7 C         140.1914  138.7423  162.3710 C.3     1  UNL1        0.1212
      8 N         140.3454  138.8933  163.8555 N.pl3   1  UNL1       -0.1777
      9 C         141.8057  139.0602  164.1553 C.ar    1  UNL1        0.1461
     10 N         142.5506  139.2495  165.4435 N.ar    1  UNL1       -0.2280
     11 C         144.0437  139.3910  165.4326 C.ar    1  UNL1        0.1003
     12 C         144.7923  139.3432  164.1335 C.ar    1  UNL1        0.0205
     13 C         144.0474  139.1539  162.8454 C.ar    1  UNL1        0.0002
     14 C         142.5541  139.0124  162.8563 C.ar    1  UNL1        0.0120
     15 S         139.2343  138.8798  164.8630 S.O2    1  UNL1        0.0599
     16 C         138.1232  138.8662  165.8706 C.3     1  UNL1        0.1999
     17 O         139.0317  140.3520  164.6594 O.2     1  UNL1       -0.1542
     18 O         139.4370  137.4075  165.0667 O.2     1  UNL1       -0.1542
     19 C         142.4940  138.5023  157.3634 C.3     1  UNL1        0.0721
     20 C         142.1572  133.0142  155.7485 C.2     1  UNL1        0.4049
     21 O         143.1884  132.1956  156.4674 O.2     1  UNL1       -0.2262
     22 N         142.0536  134.4876  156.0099 N.am    1  UNL1       -0.2460
     23 C         142.9812  135.1424  156.9901 C.3     1  UNL1        0.0968
     24 C         142.8775  136.6159  157.2514 C.3     1  UNL1        0.0230
     25 C         141.8464  137.4344  156.5326 C.3     1  UNL1        0.0180
     26 C         141.0402  138.6239  156.1023 C.3     1  UNL1        0.0015
     27 C         140.9189  136.7795  155.5524 C.3     1  UNL1        0.0230
     28 C         141.0225  135.3061  155.2910 C.3     1  UNL1        0.0968
     29 O         141.2298  132.3593  154.7683 O.3     1  UNL1       -0.4345
     30 C         139.7046  130.2560  154.7579 C.3     1  UNL1        0.0513
     31 C         141.0743  130.8674  154.7644 C.3     1  UNL1        0.2102
@<TRIPOS>BOND
     1    30    31    1
     2    31    29    1
     3    29    20    1
     4    20    21    2
     5    20    22   am
     6    22    23    1
     7    23    24    1
     8    24    25    1
     9    25    26    1
    10    25    19    1
    11    19     1    1
    12     1     2    1
    13     2     3    1
    14     3     4    1
    15     4     5    1
    16     5     6    1
    17     4     7    1
    18     7     8    1
    19     8    15    1
    20    15    16    1
    21    15    17    2
    22    15    18    2
    23     8     9    1
    24     9    10   ar
    25    10    11   ar
    26    11    12   ar
    27    12    13   ar
    28    13    14   ar
    29    25    27    1
    30    27    28    1
    31    28    22    1
    32     6     1    1
    33    14     9   ar
    34    14     4    1
