@<TRIPOS>MOLECULE
*****
 38 42 0 0 0
SMALL
GASTEIGER

@<TRIPOS>ATOM
      1 C         139.9014  141.6325  162.9173 C.3     1  UNL1        0.0414
      2 C         138.6337  140.9954  163.4045 C.3     1  UNL1        0.0741
      3 C         138.6886  140.8492  163.4213 C.3     1  UNL1        0.0904
      4 C         137.9650  140.8125  164.7347 C.3     1  UNL1        0.0386
      5 C         138.0247  139.5815  165.5897 C.3     1  UNL1        0.0594
      6 C         138.3503  138.2042  166.0867 C.3     1  UNL1        0.0174
      7 C         139.2203  137.5359  165.0637 C.3     1  UNL1        0.0174
      8 C         139.4323  138.5001  163.9344 C.3     1  UNL1        0.0594
      9 C         139.4718  139.6549  162.9628 C.3     1  UNL1        0.0386
     10 N         138.6934  139.7644  164.2595 N.3     1  UNL1       -0.2750
     11 C         138.2804  143.9067  164.4867 C.3     1  UNL1        0.0738
     12 C         138.4413  143.4857  163.0559 C.ar    1  UNL1        0.1433
     13 N         138.4428  144.3960  161.8637 N.ar    1  UNL1       -0.1337
     14 N         138.6313  143.5533  160.6373 N.ar    1  UNL1       -0.1337
     15 C         138.7463  142.1221  161.0714 C.ar    1  UNL1        0.1425
     16 N         138.6289  142.0803  162.5662 N.ar    1  UNL1       -0.3039
     17 C         138.9441  140.9403  160.1692 C.3     1  UNL1        0.0588
     18 C         140.2843  140.6900  159.5439 C.3     1  UNL1        0.0080
     19 C         137.8015  140.0086  159.8922 C.3     1  UNL1        0.0080
     20 C         141.0642  141.7978  163.8502 C.3     1  UNL1        0.0954
     21 C         142.4636  141.8065  163.3102 C.ar    1  UNL1       -0.0045
     22 C         143.4800  142.7535  163.8764 C.ar    1  UNL1       -0.0027
     23 C         144.8795  142.7622  163.3365 C.ar    1  UNL1       -0.0003
     24 C         145.2625  141.8241  162.2304 C.ar    1  UNL1       -0.0000
     25 C         144.2462  140.8772  161.6644 C.ar    1  UNL1       -0.0003
     26 C         142.8468  140.8684  162.2043 C.ar    1  UNL1       -0.0027
     27 N         140.8278  141.9545  165.3232 N.am    1  UNL1       -0.3022
     28 C         141.3254  140.9101  166.2780 C.2     1  UNL1        0.2222
     29 O         142.0594  139.7089  165.7598 O.2     1  UNL1       -0.2751
     30 H         140.3460  142.7428  165.6633 H       1  UNL1        0.1497
     31 C         141.0889  141.0668  167.7509 C.3     1  UNL1        0.0769
     32 C         141.2234  139.8829  168.6622 C.3     1  UNL1        0.0147
     33 C         140.9870  140.0396  170.1352 C.3     1  UNL1        0.0671
     34 C         140.6160  141.3802  170.6967 C.3     1  UNL1        0.2640
     35 F         140.2473  142.4370  171.6953 F       1  UNL1       -0.2043
     36 F         140.6225  140.5634  171.9548 F       1  UNL1       -0.2043
     37 C         140.4815  142.5640  169.7854 C.3     1  UNL1        0.0671
     38 C         140.7180  142.4073  168.3125 C.3     1  UNL1        0.0147
@<TRIPOS>BOND
     1    11    12    1
     2    12    13   ar
     3    13    14   ar
     4    14    15   ar
     5    15    17    1
     6    17    18    1
     7    17    19    1
     8    15    16   ar
     9     3    16    1
    10     3     4    1
    11     5     4    1
    12     5     6    1
    13     6     7    1
    14     8     7    1
    15     8     9    1
    16     8    10    1
    17    10     2    1
    18     2     1    1
    19    20     1    1
    20    20    27    1
    21    27    28   am
    22    28    29    2
    23    28    31    1
    24    31    32    1
    25    32    33    1
    26    33    34    1
    27    34    35    1
    28    34    36    1
    29    34    37    1
    30    37    38    1
    31    20    21    1
    32    21    22   ar
    33    22    23   ar
    34    23    24   ar
    35    24    25   ar
    36    25    26   ar
    37    16    12   ar
    38     9     3    1
    39    38    31    1
    40    26    21   ar
    41    10     5    1
    42    27    30    1
@<TRIPOS>MOLECULE
*****
 38 42 0 0 0
SMALL
GASTEIGER

@<TRIPOS>ATOM
      1 C         139.5790  140.9438  162.4879 C.3     1  UNL1        0.0414
      2 C         138.4124  140.7991  163.4196 C.3     1  UNL1        0.0741
      3 C         138.4254  140.6456  163.4503 C.3     1  UNL1        0.0904
      4 C         138.2316  140.9978  164.8954 C.3     1  UNL1        0.0386
      5 C         138.2332  139.9185  165.9371 C.3     1  UNL1        0.0594
      6 C         138.3040  138.5738  166.5980 C.3     1  UNL1        0.0174
      7 C         138.5286  137.5440  165.5307 C.3     1  UNL1        0.0174
      8 C         138.5966  138.2522  164.2102 C.3     1  UNL1        0.0594
      9 C         138.6206  139.2141  163.0468 C.3     1  UNL1        0.0386
     10 N         138.4140  139.7198  164.4613 N.3     1  UNL1       -0.2750
     11 C         137.9211  140.2252  160.2536 C.3     1  UNL1        0.0738
     12 C         138.1920  141.5317  160.9392 C.ar    1  UNL1        0.1433
     13 N         138.2788  142.8742  160.2758 N.ar    1  UNL1       -0.1337
     14 N         138.5641  143.8971  161.3351 N.ar    1  UNL1       -0.1337
     15 C         138.6538  143.1868  162.6532 C.ar    1  UNL1        0.1425
     16 N         138.4238  141.7249  162.4085 N.ar    1  UNL1       -0.3039
     17 C         138.9257  143.8262  163.9826 C.3     1  UNL1        0.0588
     18 C         137.7841  144.2445  164.8611 C.3     1  UNL1        0.0080
     19 C         140.3392  144.0472  164.4335 C.3     1  UNL1        0.0080
     20 C         140.9680  140.6551  162.9748 C.3     1  UNL1        0.0954
     21 C         141.9415  139.9408  162.0848 C.ar    1  UNL1       -0.0045
     22 C         141.5336  138.6752  161.3905 C.ar    1  UNL1       -0.0027
     23 C         142.5070  137.9608  160.5005 C.ar    1  UNL1       -0.0003
     24 C         143.8883  138.5121  160.3047 C.ar    1  UNL1       -0.0000
     25 C         144.2962  139.7777  160.9990 C.ar    1  UNL1       -0.0003
     26 C         143.3227  140.4920  161.8890 C.ar    1  UNL1       -0.0027
     27 N         141.3837  141.0806  164.3519 N.am    1  UNL1       -0.3022
     28 C         141.8545  140.0577  165.3429 C.2     1  UNL1        0.2222
     29 O         141.9096  138.6093  164.9568 O.2     1  UNL1       -0.2751
     30 H         141.3476  142.0313  164.6053 H       1  UNL1        0.1497
     31 C         142.2702  140.4833  166.7198 C.3     1  UNL1        0.0769
     32 C         142.1757  139.5176  167.8637 C.3     1  UNL1        0.0147
     33 C         142.5914  139.9432  169.2408 C.3     1  UNL1        0.0671
     34 C         143.1016  141.3344  169.4738 C.3     1  UNL1        0.2640
     35 F         143.6444  142.5351  170.1906 F       1  UNL1       -0.2043
     36 F         143.1956  140.7857  170.8667 F       1  UNL1       -0.2043
     37 C         143.1960  142.3001  168.3299 C.3     1  UNL1        0.0671
     38 C         142.7803  141.8745  166.9529 C.3     1  UNL1        0.0147
@<TRIPOS>BOND
     1    11    12    1
     2    12    13   ar
     3    13    14   ar
     4    14    15   ar
     5    15    17    1
     6    17    18    1
     7    17    19    1
     8    15    16   ar
     9     3    16    1
    10     3     4    1
    11     5     4    1
    12     5     6    1
    13     6     7    1
    14     8     7    1
    15     8     9    1
    16     8    10    1
    17    10     2    1
    18     2     1    1
    19    20     1    1
    20    20    27    1
    21    27    28   am
    22    28    29    2
    23    28    31    1
    24    31    32    1
    25    32    33    1
    26    33    34    1
    27    34    35    1
    28    34    36    1
    29    34    37    1
    30    37    38    1
    31    20    21    1
    32    21    22   ar
    33    22    23   ar
    34    23    24   ar
    35    24    25   ar
    36    25    26   ar
    37    16    12   ar
    38     9     3    1
    39    38    31    1
    40    26    21   ar
    41    10     5    1
    42    27    30    1
@<TRIPOS>MOLECULE
*****
 38 42 0 0 0
SMALL
GASTEIGER

@<TRIPOS>ATOM
      1 C         142.3982  141.1068  161.6268 C.3     1  UNL1        0.0414
      2 C         143.5549  142.0160  161.9191 C.3     1  UNL1        0.0741
      3 C         143.4661  142.1432  161.9435 C.3     1  UNL1        0.0904
      4 C         144.4252  142.5060  163.0383 C.3     1  UNL1        0.0386
      5 C         144.2122  143.7572  163.8377 C.3     1  UNL1        0.0594
      6 C         143.6295  145.0409  164.3501 C.3     1  UNL1        0.0174
      7 C         142.3991  145.3443  163.5476 C.3     1  UNL1        0.0174
      8 C         142.2214  144.2481  162.5392 C.3     1  UNL1        0.0594
      9 C         142.2940  143.0316  161.6483 C.3     1  UNL1        0.0386
     10 N         143.3420  143.2672  162.7185 N.3     1  UNL1       -0.2750
     11 C         144.5236  139.2822  163.1037 C.3     1  UNL1        0.0738
     12 C         144.1651  139.5769  161.6773 C.ar    1  UNL1        0.1433
     13 N         144.2297  138.6084  160.5337 N.ar    1  UNL1       -0.1337
     14 N         143.7835  139.3248  159.2937 N.ar    1  UNL1       -0.1337
     15 C         143.4432  140.7361  159.6708 C.ar    1  UNL1        0.1425
     16 N         143.6790  140.8920  161.1440 N.ar    1  UNL1       -0.3039
     17 C         142.9530  141.8041  158.7386 C.3     1  UNL1        0.0588
     18 C         141.5414  141.7680  158.2326 C.3     1  UNL1        0.0080
     19 C         143.8745  142.9084  158.3123 C.3     1  UNL1        0.0080
     20 C         141.5368  140.6052  162.7475 C.3     1  UNL1        0.0954
     21 C         140.3034  139.8066  162.4459 C.ar    1  UNL1       -0.0045
     22 C         140.0525  138.5140  163.1645 C.ar    1  UNL1       -0.0027
     23 C         138.8191  137.7154  162.8629 C.ar    1  UNL1       -0.0003
     24 C         137.8366  138.2093  161.8427 C.ar    1  UNL1       -0.0000
     25 C         138.0875  139.5018  161.1241 C.ar    1  UNL1       -0.0003
     26 C         139.3208  140.3005  161.4257 C.ar    1  UNL1       -0.0027
     27 N         141.9086  140.9022  164.1701 N.am    1  UNL1       -0.3022
     28 C         141.0756  141.8505  164.9807 C.2     1  UNL1        0.2222
     29 O         139.8708  142.5017  164.3688 O.2     1  UNL1       -0.2751
     30 H         142.6993  140.4748  164.5718 H       1  UNL1        0.1497
     31 C         141.4474  142.1474  166.4032 C.3     1  UNL1        0.0769
     32 C         140.3968  142.5971  167.3747 C.3     1  UNL1        0.0147
     33 C         140.7686  142.8941  168.7973 C.3     1  UNL1        0.0671
     34 C         142.1910  142.7413  169.2482 C.3     1  UNL1        0.2640
     35 F         143.3936  142.7452  170.1448 F       1  UNL1       -0.2043
     36 F         141.5580  143.1924  170.5311 F       1  UNL1       -0.2043
     37 C         143.2417  142.2916  168.2767 C.3     1  UNL1        0.0671
     38 C         142.8699  141.9946  166.8542 C.3     1  UNL1        0.0147
@<TRIPOS>BOND
     1    11    12    1
     2    12    13   ar
     3    13    14   ar
     4    14    15   ar
     5    15    17    1
     6    17    18    1
     7    17    19    1
     8    15    16   ar
     9     3    16    1
    10     3     4    1
    11     5     4    1
    12     5     6    1
    13     6     7    1
    14     8     7    1
    15     8     9    1
    16     8    10    1
    17    10     2    1
    18     2     1    1
    19    20     1    1
    20    20    27    1
    21    27    28   am
    22    28    29    2
    23    28    31    1
    24    31    32    1
    25    32    33    1
    26    33    34    1
    27    34    35    1
    28    34    36    1
    29    34    37    1
    30    37    38    1
    31    20    21    1
    32    21    22   ar
    33    22    23   ar
    34    23    24   ar
    35    24    25   ar
    36    25    26   ar
    37    16    12   ar
    38     9     3    1
    39    38    31    1
    40    26    21   ar
    41    10     5    1
    42    27    30    1
@<TRIPOS>MOLECULE
*****
 38 42 0 0 0
SMALL
GASTEIGER

@<TRIPOS>ATOM
      1 C         139.7708  141.7300  162.9904 C.3     1  UNL1        0.0414
      2 C         138.9075  140.5115  162.8493 C.3     1  UNL1        0.0741
      3 C         138.8466  140.4829  162.9912 C.3     1  UNL1        0.0904
      4 C         139.5327  139.1504  162.9306 C.3     1  UNL1        0.0386
      5 C         139.4024  138.1872  164.0731 C.3     1  UNL1        0.0594
      6 C         139.0105  137.5747  165.3850 C.3     1  UNL1        0.0174
      7 C         138.1431  138.5572  166.1145 C.3     1  UNL1        0.0174
      8 C         137.9989  139.7770  165.2534 C.3     1  UNL1        0.0594
      9 C         138.0303  140.8522  164.1942 C.3     1  UNL1        0.0386
     10 N         138.7772  139.5483  163.9917 N.3     1  UNL1       -0.2750
     11 C         137.7290  143.5484  162.9299 C.3     1  UNL1        0.0738
     12 C         138.4632  142.8552  161.8206 C.ar    1  UNL1        0.1433
     13 N         138.8125  143.4494  160.4883 N.ar    1  UNL1       -0.1337
     14 N         139.5421  142.4077  159.6932 N.ar    1  UNL1       -0.1337
     15 C         139.6438  141.1697  160.5339 C.ar    1  UNL1        0.1425
     16 N         138.9769  141.4462  161.8487 N.ar    1  UNL1       -0.3039
     17 C         140.2974  139.8812  160.1306 C.3     1  UNL1        0.0588
     18 C         141.7799  139.7120  160.2845 C.3     1  UNL1        0.0080
     19 C         139.4687  138.7619  159.5734 C.3     1  UNL1        0.0080
     20 C         141.0637  141.6497  163.7465 C.3     1  UNL1        0.0954
     21 C         142.3649  141.8683  163.0329 C.ar    1  UNL1       -0.0045
     22 C         142.4872  142.9636  162.0152 C.ar    1  UNL1       -0.0027
     23 C         143.7883  143.1824  161.3015 C.ar    1  UNL1       -0.0003
     24 C         144.9670  142.3058  161.6055 C.ar    1  UNL1       -0.0000
     25 C         144.8447  141.2106  162.6230 C.ar    1  UNL1       -0.0003
     26 C         143.5436  140.9919  163.3367 C.ar    1  UNL1       -0.0027
     27 N         141.0557  141.3506  165.2164 N.am    1  UNL1       -0.3022
     28 C         140.5200  142.3630  166.1849 C.2     1  UNL1        0.2222
     29 O         139.9924  143.6746  165.6835 O.2     1  UNL1       -0.2751
     30 H         141.4020  140.4897  165.5455 H       1  UNL1        0.1497
     31 C         140.5120  142.0639  167.6547 C.3     1  UNL1        0.0769
     32 C         140.5090  140.6414  168.1306 C.3     1  UNL1        0.0147
     33 C         140.5010  140.3423  169.6005 C.3     1  UNL1        0.0671
     34 C         140.4959  141.4657  170.5944 C.3     1  UNL1        0.2640
     35 F         140.4890  142.1814  171.9127 F       1  UNL1       -0.2043
     36 F         140.4906  140.2917  171.5281 F       1  UNL1       -0.2043
     37 C         140.4989  142.8882  170.1185 C.3     1  UNL1        0.0671
     38 C         140.5069  143.1873  168.6487 C.3     1  UNL1        0.0147
@<TRIPOS>BOND
     1    11    12    1
     2    12    13   ar
     3    13    14   ar
     4    14    15   ar
     5    15    17    1
     6    17    18    1
     7    17    19    1
     8    15    16   ar
     9     3    16    1
    10     3     4    1
    11     5     4    1
    12     5     6    1
    13     6     7    1
    14     8     7    1
    15     8     9    1
    16     8    10    1
    17    10     2    1
    18     2     1    1
    19    20     1    1
    20    20    27    1
    21    27    28   am
    22    28    29    2
    23    28    31    1
    24    31    32    1
    25    32    33    1
    26    33    34    1
    27    34    35    1
    28    34    36    1
    29    34    37    1
    30    37    38    1
    31    20    21    1
    32    21    22   ar
    33    22    23   ar
    34    23    24   ar
    35    24    25   ar
    36    25    26   ar
    37    16    12   ar
    38     9     3    1
    39    38    31    1
    40    26    21   ar
    41    10     5    1
    42    27    30    1
@<TRIPOS>MOLECULE
*****
 38 42 0 0 0
SMALL
GASTEIGER

@<TRIPOS>ATOM
      1 C         140.8955  139.9124  162.3939 C.3     1  UNL1        0.0414
      2 C         141.4179  138.7638  163.2051 C.3     1  UNL1        0.0741
      3 C         141.5697  138.8032  163.1983 C.3     1  UNL1        0.0904
      4 C         141.6466  138.4462  164.6531 C.3     1  UNL1        0.0386
      5 C         142.9465  138.5782  165.3900 C.3     1  UNL1        0.0594
      6 C         144.3871  138.8547  165.7033 C.3     1  UNL1        0.0174
      7 C         145.0487  139.3432  164.4488 C.3     1  UNL1        0.0174
      8 C         144.0169  139.3686  163.3603 C.3     1  UNL1        0.0594
      9 C         142.7926  139.2923  162.4804 C.3     1  UNL1        0.0386
     10 N         142.7177  138.8958  163.9420 N.3     1  UNL1       -0.2750
     11 C         141.2146  138.5661  159.9629 C.3     1  UNL1        0.0738
     12 C         140.1066  138.5622  160.9742 C.ar    1  UNL1        0.1433
     13 N         138.6410  138.4487  160.6759 N.ar    1  UNL1       -0.1337
     14 N         137.8985  138.4876  161.9785 N.ar    1  UNL1       -0.1337
     15 C         138.9051  138.6251  163.0820 C.ar    1  UNL1        0.1425
     16 N         140.2698  138.6712  162.4613 N.ar    1  UNL1       -0.3039
     17 C         138.6005  138.7028  164.5487 C.3     1  UNL1        0.0588
     18 C         138.2322  140.0177  165.1696 C.3     1  UNL1        0.0080
     19 C         138.6642  137.4657  165.3946 C.3     1  UNL1        0.0080
     20 C         140.9369  141.3043  162.9514 C.3     1  UNL1        0.0954
     21 C         141.0598  142.4791  162.0270 C.ar    1  UNL1       -0.0045
     22 C         141.9480  142.3948  160.8210 C.ar    1  UNL1       -0.0027
     23 C         142.0710  143.5696  159.8966 C.ar    1  UNL1       -0.0003
     24 C         141.3058  144.8288  160.1780 C.ar    1  UNL1       -0.0000
     25 C         140.4177  144.9131  161.3839 C.ar    1  UNL1       -0.0003
     26 C         140.2947  143.7383  162.3084 C.ar    1  UNL1       -0.0027
     27 N         140.8552  141.5214  164.4334 N.am    1  UNL1       -0.3022
     28 C         142.0242  142.1032  165.1717 C.2     1  UNL1        0.2222
     29 O         143.2748  142.4679  164.4280 O.2     1  UNL1       -0.2751
     30 H         140.0344  141.2821  164.9215 H       1  UNL1        0.1497
     31 C         141.9425  142.3204  166.6536 C.3     1  UNL1        0.0769
     32 C         143.1764  142.2012  167.4982 C.3     1  UNL1        0.0147
     33 C         143.0948  142.4184  168.9802 C.3     1  UNL1        0.0671
     34 C         141.7792  142.7547  169.6175 C.3     1  UNL1        0.2640
     35 F         140.7705  143.0901  170.6759 F       1  UNL1       -0.2043
     36 F         142.6628  142.7520  170.8296 F       1  UNL1       -0.2043
     37 C         140.5453  142.8738  168.7729 C.3     1  UNL1        0.0671
     38 C         140.6269  142.6567  167.2910 C.3     1  UNL1        0.0147
@<TRIPOS>BOND
     1    11    12    1
     2    12    13   ar
     3    13    14   ar
     4    14    15   ar
     5    15    17    1
     6    17    18    1
     7    17    19    1
     8    15    16   ar
     9     3    16    1
    10     3     4    1
    11     5     4    1
    12     5     6    1
    13     6     7    1
    14     8     7    1
    15     8     9    1
    16     8    10    1
    17    10     2    1
    18     2     1    1
    19    20     1    1
    20    20    27    1
    21    27    28   am
    22    28    29    2
    23    28    31    1
    24    31    32    1
    25    32    33    1
    26    33    34    1
    27    34    35    1
    28    34    36    1
    29    34    37    1
    30    37    38    1
    31    20    21    1
    32    21    22   ar
    33    22    23   ar
    34    23    24   ar
    35    24    25   ar
    36    25    26   ar
    37    16    12   ar
    38     9     3    1
    39    38    31    1
    40    26    21   ar
    41    10     5    1
    42    27    30    1
@<TRIPOS>MOLECULE
*****
 38 42 0 0 0
SMALL
GASTEIGER

@<TRIPOS>ATOM
      1 C         140.8462  142.5051  161.6824 C.3     1  UNL1        0.0414
      2 C         140.6695  143.8699  162.2791 C.3     1  UNL1        0.0741
      3 C         140.5233  143.8431  162.3301 C.3     1  UNL1        0.0904
      4 C         140.8819  144.6522  163.5412 C.3     1  UNL1        0.0386
      5 C         139.8671  144.8718  164.6238 C.3     1  UNL1        0.0594
      6 C         138.5930  144.8311  165.4144 C.3     1  UNL1        0.0174
      7 C         137.5931  144.0237  164.6409 C.3     1  UNL1        0.0174
      8 C         138.2493  143.5653  163.3722 C.3     1  UNL1        0.0594
      9 C         139.1500  143.2537  162.2015 C.3     1  UNL1        0.0386
     10 N         139.6547  144.0895  163.3617 N.3     1  UNL1       -0.2750
     11 C         139.8781  143.3080  159.1762 C.3     1  UNL1        0.0738
     12 C         141.2416  143.3776  159.7977 C.ar    1  UNL1        0.1433
     13 N         142.5478  143.2133  159.0788 N.ar    1  UNL1       -0.1337
     14 N         143.6516  143.3578  160.0841 N.ar    1  UNL1       -0.1337
     15 C         143.0276  143.6113  161.4244 C.ar    1  UNL1        0.1425
     16 N         141.5382  143.6235  161.2474 N.ar    1  UNL1       -0.3039
     17 C         143.7639  143.8166  162.7151 C.3     1  UNL1        0.0588
     18 C         143.8765  145.1917  163.3037 C.3     1  UNL1        0.0080
     19 C         144.3875  142.6468  163.4172 C.3     1  UNL1        0.0080
     20 C         141.3090  141.3655  162.5409 C.3     1  UNL1        0.0954
     21 C         141.8725  140.1288  161.9059 C.ar    1  UNL1       -0.0045
     22 C         141.4181  139.7146  160.5377 C.ar    1  UNL1       -0.0027
     23 C         141.9815  138.4780  159.9027 C.ar    1  UNL1       -0.0003
     24 C         142.9994  137.6554  160.6359 C.ar    1  UNL1       -0.0000
     25 C         143.4537  138.0696  162.0041 C.ar    1  UNL1       -0.0003
     26 C         142.8903  139.3063  162.6391 C.ar    1  UNL1       -0.0027
     27 N         141.2084  141.4624  164.0344 N.am    1  UNL1       -0.3022
     28 C         140.0714  140.7998  164.7541 C.2     1  UNL1        0.2222
     29 O         139.0349  140.0402  163.9803 O.2     1  UNL1       -0.2751
     30 H         141.8887  141.9610  164.5423 H       1  UNL1        0.1497
     31 C         139.9708  140.8968  166.2476 C.3     1  UNL1        0.0769
     32 C         140.5364  142.0886  166.9615 C.3     1  UNL1        0.0147
     33 C         140.4358  142.1856  168.4551 C.3     1  UNL1        0.0671
     34 C         139.7697  141.0907  169.2345 C.3     1  UNL1        0.2640
     35 F         139.2355  140.3164  170.4029 F       1  UNL1       -0.2043
     36 F         140.1498  142.0136  170.3542 F       1  UNL1       -0.2043
     37 C         139.2041  139.8989  168.5206 C.3     1  UNL1        0.0671
     38 C         139.3046  139.8020  167.0271 C.3     1  UNL1        0.0147
@<TRIPOS>BOND
     1    11    12    1
     2    12    13   ar
     3    13    14   ar
     4    14    15   ar
     5    15    17    1
     6    17    18    1
     7    17    19    1
     8    15    16   ar
     9     3    16    1
    10     3     4    1
    11     5     4    1
    12     5     6    1
    13     6     7    1
    14     8     7    1
    15     8     9    1
    16     8    10    1
    17    10     2    1
    18     2     1    1
    19    20     1    1
    20    20    27    1
    21    27    28   am
    22    28    29    2
    23    28    31    1
    24    31    32    1
    25    32    33    1
    26    33    34    1
    27    34    35    1
    28    34    36    1
    29    34    37    1
    30    37    38    1
    31    20    21    1
    32    21    22   ar
    33    22    23   ar
    34    23    24   ar
    35    24    25   ar
    36    25    26   ar
    37    16    12   ar
    38     9     3    1
    39    38    31    1
    40    26    21   ar
    41    10     5    1
    42    27    30    1
@<TRIPOS>MOLECULE
*****
 38 42 0 0 0
SMALL
GASTEIGER

@<TRIPOS>ATOM
      1 C         140.1563  140.3796  165.8933 C.3     1  UNL1        0.0414
      2 C         141.2831  139.4032  166.0575 C.3     1  UNL1        0.0741
      3 C         141.3991  139.5029  166.0219 C.3     1  UNL1        0.0904
      4 C         142.0081  138.3866  165.2263 C.3     1  UNL1        0.0386
      5 C         143.3010  138.6037  164.4973 C.3     1  UNL1        0.0594
      6 C         144.5439  139.2472  163.9579 C.3     1  UNL1        0.0174
      7 C         144.5870  140.6616  164.4557 C.3     1  UNL1        0.0174
      8 C         143.3708  140.8921  165.3029 C.3     1  UNL1        0.0594
      9 C         142.0829  140.8363  166.0885 C.3     1  UNL1        0.0386
     10 N         142.5759  139.6203  165.3286 N.3     1  UNL1       -0.2750
     11 C         138.8975  137.6792  164.9891 C.3     1  UNL1        0.0738
     12 C         138.9563  138.4475  166.2762 C.ar    1  UNL1        0.1433
     13 N         137.8757  138.5125  167.3144 N.ar    1  UNL1       -0.1337
     14 N         138.3576  139.3908  168.4307 N.ar    1  UNL1       -0.1337
     15 C         139.7361  139.8687  168.0825 C.ar    1  UNL1        0.1425
     16 N         140.1061  139.2858  166.7509 N.ar    1  UNL1       -0.3039
     17 C         140.5939  140.7712  168.9189 C.3     1  UNL1        0.0588
     18 C         141.7321  140.2007  169.7121 C.3     1  UNL1        0.0080
     19 C         140.3137  142.2442  168.9622 C.3     1  UNL1        0.0080
     20 C         139.8312  140.9282  164.5356 C.3     1  UNL1        0.0954
     21 C         139.2231  142.2931  164.4041 C.ar    1  UNL1       -0.0045
     22 C         139.5439  143.3573  165.4115 C.ar    1  UNL1       -0.0027
     23 C         138.9359  144.7222  165.2800 C.ar    1  UNL1       -0.0003
     24 C         138.0070  145.0229  164.1412 C.ar    1  UNL1       -0.0000
     25 C         137.6862  143.9588  163.1339 C.ar    1  UNL1       -0.0003
     26 C         138.2942  142.5939  163.2654 C.ar    1  UNL1       -0.0027
     27 N         140.1141  140.1119  163.3093 N.am    1  UNL1       -0.3022
     28 C         141.0948  140.6075  162.2882 C.2     1  UNL1        0.2222
     29 O         141.7925  141.9195  162.4934 O.2     1  UNL1       -0.2751
     30 H         139.6562  139.2508  163.1747 H       1  UNL1        0.1497
     31 C         141.3777  139.7913  161.0620 C.3     1  UNL1        0.0769
     32 C         140.2637  139.4415  160.1204 C.3     1  UNL1        0.0147
     33 C         140.5465  138.6252  158.8941 C.3     1  UNL1        0.0671
     34 C         141.9435  138.1587  158.6096 C.3     1  UNL1        0.2640
     35 F         143.0920  137.4901  157.9140 F       1  UNL1       -0.2043
     36 F         141.2283  137.5768  157.4264 F       1  UNL1       -0.2043
     37 C         143.0575  138.5085  159.5512 C.3     1  UNL1        0.0671
     38 C         142.7746  139.3247  160.7774 C.3     1  UNL1        0.0147
@<TRIPOS>BOND
     1    11    12    1
     2    12    13   ar
     3    13    14   ar
     4    14    15   ar
     5    15    17    1
     6    17    18    1
     7    17    19    1
     8    15    16   ar
     9     3    16    1
    10     3     4    1
    11     5     4    1
    12     5     6    1
    13     6     7    1
    14     8     7    1
    15     8     9    1
    16     8    10    1
    17    10     2    1
    18     2     1    1
    19    20     1    1
    20    20    27    1
    21    27    28   am
    22    28    29    2
    23    28    31    1
    24    31    32    1
    25    32    33    1
    26    33    34    1
    27    34    35    1
    28    34    36    1
    29    34    37    1
    30    37    38    1
    31    20    21    1
    32    21    22   ar
    33    22    23   ar
    34    23    24   ar
    35    24    25   ar
    36    25    26   ar
    37    16    12   ar
    38     9     3    1
    39    38    31    1
    40    26    21   ar
    41    10     5    1
    42    27    30    1
@<TRIPOS>MOLECULE
*****
 38 42 0 0 0
SMALL
GASTEIGER

@<TRIPOS>ATOM
      1 C         141.1063  143.0297  161.9080 C.3     1  UNL1        0.0414
      2 C         142.5330  143.4789  161.7948 C.3     1  UNL1        0.0741
      3 C         142.6069  143.3404  161.7918 C.3     1  UNL1        0.0904
      4 C         143.5030  143.8843  162.8647 C.3     1  UNL1        0.0386
      5 C         144.6039  143.0335  163.4251 C.3     1  UNL1        0.0594
      6 C         145.5277  141.8785  163.6751 C.3     1  UNL1        0.0174
      7 C         145.1286  140.7592  162.7597 C.3     1  UNL1        0.0174
      8 C         143.9582  141.2225  161.9439 C.3     1  UNL1        0.0594
      9 C         142.8118  141.9457  161.2792 C.3     1  UNL1        0.0386
     10 N         143.6339  142.6281  162.3551 N.3     1  UNL1       -0.2750
     11 C         140.8879  145.5778  163.4317 C.3     1  UNL1        0.0738
     12 C         140.7157  145.2197  161.9852 C.ar    1  UNL1        0.1433
     13 N         139.7233  145.8270  161.0385 N.ar    1  UNL1       -0.1337
     14 N         139.9000  145.1740  159.6998 N.ar    1  UNL1       -0.1337
     15 C         141.0017  144.1631  159.8190 C.ar    1  UNL1        0.1425
     16 N         141.5059  144.1913  161.2314 N.ar    1  UNL1       -0.3039
     17 C         141.5100  143.2791  158.7189 C.3     1  UNL1        0.0588
     18 C         142.7947  143.6140  158.0207 C.3     1  UNL1        0.0080
     19 C         140.7337  142.0601  158.3169 C.3     1  UNL1        0.0080
     20 C         140.7289  141.9756  162.9062 C.3     1  UNL1        0.0954
     21 C         139.7259  140.9217  162.5412 C.ar    1  UNL1       -0.0045
     22 C         138.7310  141.1797  161.4486 C.ar    1  UNL1       -0.0027
     23 C         137.7279  140.1258  161.0835 C.ar    1  UNL1       -0.0003
     24 C         137.7198  138.8140  161.8110 C.ar    1  UNL1       -0.0000
     25 C         138.7147  138.5561  162.9035 C.ar    1  UNL1       -0.0003
     26 C         139.7178  139.6099  163.2686 C.ar    1  UNL1       -0.0027
     27 N         141.3545  141.9754  164.2696 N.am    1  UNL1       -0.3022
     28 C         140.5996  142.5295  165.4413 C.2     1  UNL1        0.2222
     29 O         139.2191  143.0840  165.2497 O.2     1  UNL1       -0.2751
     30 H         142.2606  141.6115  164.3953 H       1  UNL1        0.1497
     31 C         141.2252  142.5293  166.8046 C.3     1  UNL1        0.0769
     32 C         140.3848  142.8074  168.0155 C.3     1  UNL1        0.0147
     33 C         141.0104  142.8071  169.3789 C.3     1  UNL1        0.0671
     34 C         142.4765  142.5287  169.5311 C.3     1  UNL1        0.2640
     35 F         143.8117  142.3219  170.1827 F       1  UNL1       -0.2043
     36 F         142.0997  142.7350  170.9683 F       1  UNL1       -0.2043
     37 C         143.3169  142.2505  168.3202 C.3     1  UNL1        0.0671
     38 C         142.6913  142.2508  166.9570 C.3     1  UNL1        0.0147
@<TRIPOS>BOND
     1    11    12    1
     2    12    13   ar
     3    13    14   ar
     4    14    15   ar
     5    15    17    1
     6    17    18    1
     7    17    19    1
     8    15    16   ar
     9     3    16    1
    10     3     4    1
    11     5     4    1
    12     5     6    1
    13     6     7    1
    14     8     7    1
    15     8     9    1
    16     8    10    1
    17    10     2    1
    18     2     1    1
    19    20     1    1
    20    20    27    1
    21    27    28   am
    22    28    29    2
    23    28    31    1
    24    31    32    1
    25    32    33    1
    26    33    34    1
    27    34    35    1
    28    34    36    1
    29    34    37    1
    30    37    38    1
    31    20    21    1
    32    21    22   ar
    33    22    23   ar
    34    23    24   ar
    35    24    25   ar
    36    25    26   ar
    37    16    12   ar
    38     9     3    1
    39    38    31    1
    40    26    21   ar
    41    10     5    1
    42    27    30    1
@<TRIPOS>MOLECULE
*****
 38 42 0 0 0
SMALL
GASTEIGER

@<TRIPOS>ATOM
      1 C         141.5058  142.5369  162.3735 C.3     1  UNL1        0.0414
      2 C         141.0081  143.9271  162.6371 C.3     1  UNL1        0.0741
      3 C         140.8532  143.9074  162.6534 C.3     1  UNL1        0.0904
      4 C         140.9842  144.5968  163.9791 C.3     1  UNL1        0.0386
      5 C         139.7721  144.8095  164.8369 C.3     1  UNL1        0.0594
      6 C         138.3565  144.8037  165.3326 C.3     1  UNL1        0.0174
      7 C         137.5054  144.1305  164.2970 C.3     1  UNL1        0.0174
      8 C         138.3951  143.7202  163.1612 C.3     1  UNL1        0.0594
      9 C         139.5101  143.4308  162.1854 C.3     1  UNL1        0.0386
     10 N         139.7961  144.1398  163.4948 N.3     1  UNL1       -0.2750
     11 C         143.9328  143.6760  163.7079 C.3     1  UNL1        0.0738
     12 C         143.4808  143.5883  162.2803 C.ar    1  UNL1        0.1433
     13 N         144.3649  143.3789  161.0867 N.ar    1  UNL1       -0.1337
     14 N         143.4958  143.3559  159.8645 N.ar    1  UNL1       -0.1337
     15 C         142.0745  143.5510  160.3025 C.ar    1  UNL1        0.1425
     16 N         142.0652  143.6947  161.7956 N.ar    1  UNL1       -0.3039
     17 C         140.8734  143.5949  159.4050 C.3     1  UNL1        0.0588
     18 C         140.2779  142.3197  158.8863 C.3     1  UNL1        0.0080
     19 C         140.2678  144.9139  159.0263 C.3     1  UNL1        0.0080
     20 C         140.9935  141.3891  163.1921 C.3     1  UNL1        0.0954
     21 C         140.2991  140.2409  162.5218 C.ar    1  UNL1       -0.0045
     22 C         138.9715  139.7654  163.0335 C.ar    1  UNL1       -0.0027
     23 C         138.2770  138.6172  162.3633 C.ar    1  UNL1       -0.0003
     24 C         138.9100  137.9443  161.1815 C.ar    1  UNL1       -0.0000
     25 C         140.2375  138.4197  160.6699 C.ar    1  UNL1       -0.0003
     26 C         140.9320  139.5680  161.3401 C.ar    1  UNL1       -0.0027
     27 N         141.1756  141.3895  164.6811 N.am    1  UNL1       -0.3022
     28 C         142.4208  140.8105  165.2845 C.2     1  UNL1        0.2222
     29 O         143.4839  140.2310  164.3991 O.2     1  UNL1       -0.2751
     30 H         140.4779  141.7699  165.2622 H       1  UNL1        0.1497
     31 C         142.6028  140.8109  166.7734 C.3     1  UNL1        0.0769
     32 C         142.9129  142.0912  167.4907 C.3     1  UNL1        0.0147
     33 C         143.0950  142.0917  168.9797 C.3     1  UNL1        0.0671
     34 C         142.9669  140.8117  169.7512 C.3     1  UNL1        0.2640
     35 F         142.9437  139.8619  170.9120 F       1  UNL1       -0.2043
     36 F         143.2690  141.7622  170.8716 F       1  UNL1       -0.2043
     37 C         142.6568  139.5313  169.0340 C.3     1  UNL1        0.0671
     38 C         142.4747  139.5309  167.5451 C.3     1  UNL1        0.0147
@<TRIPOS>BOND
     1    11    12    1
     2    12    13   ar
     3    13    14   ar
     4    14    15   ar
     5    15    17    1
     6    17    18    1
     7    17    19    1
     8    15    16   ar
     9     3    16    1
    10     3     4    1
    11     5     4    1
    12     5     6    1
    13     6     7    1
    14     8     7    1
    15     8     9    1
    16     8    10    1
    17    10     2    1
    18     2     1    1
    19    20     1    1
    20    20    27    1
    21    27    28   am
    22    28    29    2
    23    28    31    1
    24    31    32    1
    25    32    33    1
    26    33    34    1
    27    34    35    1
    28    34    36    1
    29    34    37    1
    30    37    38    1
    31    20    21    1
    32    21    22   ar
    33    22    23   ar
    34    23    24   ar
    35    24    25   ar
    36    25    26   ar
    37    16    12   ar
    38     9     3    1
    39    38    31    1
    40    26    21   ar
    41    10     5    1
    42    27    30    1
