@<TRIPOS>MOLECULE
*****
 45 50 0 0 0
SMALL
GASTEIGER

@<TRIPOS>ATOM
      1 C         141.8474  138.1443  163.7890 C.3     1  UNL1        0.0932
      2 C         142.4514  138.6464  165.0670 C.3     1  UNL1        0.0286
      3 C         143.7096  139.4623  165.0321 C.3     1  UNL1        0.0193
      4 C         144.3639  139.7760  163.7192 C.3     1  UNL1        0.0700
      5 C         143.7600  139.2739  162.4413 C.3     1  UNL1        0.0193
      6 C         142.5017  138.4580  162.4762 C.3     1  UNL1        0.0286
      7 C         143.6755  139.3253  163.6880 C.3     1  UNL1        0.1562
      8 O         142.5378  138.5876  163.7196 O.3     1  UNL1       -0.3572
      9 N         145.6222  140.5918  163.6844 N.3     1  UNL1       -0.2926
     10 H         146.3484  139.9962  163.2866 H       1  UNL1        0.1236
     11 C         145.6573  141.8841  162.9236 C.3     1  UNL1        0.1152
     12 C         144.4768  142.8087  162.9609 C.ar    1  UNL1        0.0765
     13 C         144.0179  143.3869  164.2668 C.ar    1  UNL1        0.0193
     14 C         142.8374  144.3115  164.3042 C.ar    1  UNL1        0.0411
     15 C         142.1156  144.6579  163.0357 C.ar    1  UNL1        0.1708
     16 C         142.5744  144.0798  161.7298 C.ar    1  UNL1        0.1682
     17 N         143.7550  143.1552  161.6925 N.ar    1  UNL1       -0.2304
     18 N         141.8527  144.4263  160.4613 N.am    1  UNL1       -0.2639
     19 C         140.6722  145.3508  160.4987 C.2     1  UNL1        0.2718
     20 O         139.9504  145.6973  159.2302 O.2     1  UNL1       -0.2707
     21 C         140.2133  145.9290  161.8045 C.3     1  UNL1        0.2898
     22 O         140.9350  145.5826  163.0730 O.3     1  UNL1       -0.4628
     23 H         142.1538  144.0468  159.6043 H       1  UNL1        0.1565
     24 C         140.5892  137.3285  163.8239 C.3     1  UNL1        0.0320
     25 C         139.3006  137.9557  164.2670 C.3     1  UNL1        0.0327
     26 C         139.8307  142.1239  165.8779 C.ar    1  UNL1        0.2249
     27 C         139.2696  143.2951  165.1272 C.ar    1  UNL1        0.0593
     28 C         138.5318  143.0768  163.8396 C.ar    1  UNL1        0.0254
     29 C         138.3551  141.6875  163.3026 C.ar    1  UNL1        0.0990
     30 N         137.6173  141.4692  162.0150 N.ar    1  UNL1       -0.2400
     31 C         137.4406  140.0799  161.4780 C.ar    1  UNL1        0.1281
     32 C         138.0017  138.9086  162.2287 C.ar    1  UNL1        0.1566
     33 F         137.8250  137.5193  161.6917 F       1  UNL1       -0.2028
     34 C         138.7395  139.1269  163.5163 C.ar    1  UNL1        0.0261
     35 C         138.9162  140.5163  164.0533 C.ar    1  UNL1        0.1002
     36 N         139.6540  140.7346  165.3409 N.ar    1  UNL1       -0.2104
     37 O         140.5686  142.3422  167.1655 O.3     1  UNL1       -0.4602
     38 C         142.0528  142.1339  167.2240 C.3     1  UNL1        0.2071
     39 C         142.7038  141.7341  168.5149 C.3     1  UNL1        0.0480
     40 C         142.6063  142.6310  169.7133 C.3     1  UNL1        0.0155
     41 C         141.5928  142.3472  170.7821 C.3     1  UNL1        0.1097
     42 C         140.1614  142.7493  170.5841 C.2     1  UNL1        0.3171
     43 O         139.7877  144.2018  170.5534 O.2     1  UNL1       -0.2501
     44 C         139.4721  140.3382  169.9047 C.3     1  UNL1        0.2556
     45 O         139.1035  141.6991  170.4168 O.3     1  UNL1       -0.4444
@<TRIPOS>BOND
     1    44    45    1
     2    45    42    1
     3    42    43    2
     4    42    41    1
     5    41    40    1
     6    40    39    1
     7    39    38    1
     8    38    37    1
     9    37    26    1
    10    26    27   ar
    11    27    28   ar
    12    28    29   ar
    13    29    30   ar
    14    30    31   ar
    15    31    32   ar
    16    32    33    1
    17    32    34   ar
    18    34    25    1
    19    25    24    1
    20    24     1    1
    21     1     2    1
    22     2     3    1
    23     3     4    1
    24     4     9    1
    25     9    11    1
    26    11    12    1
    27    12    13   ar
    28    13    14   ar
    29    14    15   ar
    30    15    16   ar
    31    16    17   ar
    32    16    18    1
    33    18    19   am
    34    19    20    2
    35    19    21    1
    36    21    22    1
    37     4     5    1
    38     5     6    1
    39     4     7    1
    40     7     8    1
    41    34    35   ar
    42    35    36   ar
    43    36    26   ar
    44    35    29   ar
    45     6     1    1
    46     8     1    1
    47    17    12   ar
    48    22    15    1
    49     9    10    1
    50    18    23    1
@<TRIPOS>MOLECULE
*****
 45 50 0 0 0
SMALL
GASTEIGER

@<TRIPOS>ATOM
      1 C         138.9463  143.1580  162.9938 C.3     1  UNL1        0.0932
      2 C         139.6519  143.3248  164.3070 C.3     1  UNL1        0.0286
      3 C         140.9335  144.1010  164.3765 C.3     1  UNL1        0.0193
      4 C         141.5097  144.7104  163.1328 C.3     1  UNL1        0.0700
      5 C         140.8042  144.5436  161.8196 C.3     1  UNL1        0.0193
      6 C         139.5224  143.7673  161.7502 C.3     1  UNL1        0.0286
      7 C         140.8050  144.2937  163.0451 C.3     1  UNL1        0.1562
      8 O         139.6461  143.5919  162.9822 O.3     1  UNL1       -0.3572
      9 N         142.7913  145.4866  163.2023 N.3     1  UNL1       -0.2926
     10 H         142.8484  145.8771  164.1428 H       1  UNL1        0.1236
     11 C         144.0989  144.8006  162.9382 C.3     1  UNL1        0.1152
     12 C         144.1578  143.3040  162.8577 C.ar    1  UNL1        0.0765
     13 C         144.5481  142.5027  164.0643 C.ar    1  UNL1        0.0193
     14 C         144.6070  141.0061  163.9838 C.ar    1  UNL1        0.0411
     15 C         144.2757  140.3106  162.6967 C.ar    1  UNL1        0.1708
     16 C         143.8855  141.1117  161.4902 C.ar    1  UNL1        0.1682
     17 N         143.8265  142.6085  161.5706 N.ar    1  UNL1       -0.2304
     18 N         143.5542  140.4162  160.2031 N.am    1  UNL1       -0.2639
     19 C         143.6131  138.9196  160.1226 C.2     1  UNL1        0.2718
     20 O         143.2818  138.2241  158.8356 O.2     1  UNL1       -0.2707
     21 C         144.0034  138.1184  161.3292 C.3     1  UNL1        0.2898
     22 O         144.3347  138.8139  162.6163 O.3     1  UNL1       -0.4628
     23 H         143.2980  140.9421  159.4112 H       1  UNL1        0.1565
     24 C         137.6647  142.3818  162.9243 C.3     1  UNL1        0.0320
     25 C         137.5897  141.0036  163.5118 C.3     1  UNL1        0.0327
     26 C         140.9788  139.2115  165.8681 C.ar    1  UNL1        0.2249
     27 C         141.7959  138.0998  165.2795 C.ar    1  UNL1        0.0593
     28 C         141.4834  137.5855  163.9056 C.ar    1  UNL1        0.0254
     29 C         140.3537  138.1829  163.1201 C.ar    1  UNL1        0.0990
     30 N         140.0412  137.6686  161.7462 N.ar    1  UNL1       -0.2400
     31 C         138.9115  138.2659  160.9607 C.ar    1  UNL1        0.1281
     32 C         138.0943  139.3777  161.5493 C.ar    1  UNL1        0.1566
     33 F         136.9646  139.9750  160.7639 F       1  UNL1       -0.2028
     34 C         138.4068  139.8920  162.9233 C.ar    1  UNL1        0.0261
     35 C         139.5366  139.2945  163.7087 C.ar    1  UNL1        0.1002
     36 N         139.8491  139.8088  165.0827 N.ar    1  UNL1       -0.2104
     37 O         141.2913  139.7258  167.2421 O.3     1  UNL1       -0.4602
     38 C         142.3663  140.7546  167.4312 C.3     1  UNL1        0.2071
     39 C         142.0148  142.2128  167.4449 C.3     1  UNL1        0.0480
     40 C         140.6136  142.6436  167.7629 C.3     1  UNL1        0.0155
     41 C         140.3304  143.4015  169.0260 C.3     1  UNL1        0.1097
     42 C         139.9496  142.6627  170.2746 C.2     1  UNL1        0.3171
     43 O         139.1397  143.3488  171.3346 O.2     1  UNL1       -0.2501
     44 C         141.6703  140.9296  171.1610 C.3     1  UNL1        0.2556
     45 O         140.3786  141.2378  170.4634 O.3     1  UNL1       -0.4444
@<TRIPOS>BOND
     1    44    45    1
     2    45    42    1
     3    42    43    2
     4    42    41    1
     5    41    40    1
     6    40    39    1
     7    39    38    1
     8    38    37    1
     9    37    26    1
    10    26    27   ar
    11    27    28   ar
    12    28    29   ar
    13    29    30   ar
    14    30    31   ar
    15    31    32   ar
    16    32    33    1
    17    32    34   ar
    18    34    25    1
    19    25    24    1
    20    24     1    1
    21     1     2    1
    22     2     3    1
    23     3     4    1
    24     4     9    1
    25     9    11    1
    26    11    12    1
    27    12    13   ar
    28    13    14   ar
    29    14    15   ar
    30    15    16   ar
    31    16    17   ar
    32    16    18    1
    33    18    19   am
    34    19    20    2
    35    19    21    1
    36    21    22    1
    37     4     5    1
    38     5     6    1
    39     4     7    1
    40     7     8    1
    41    34    35   ar
    42    35    36   ar
    43    36    26   ar
    44    35    29   ar
    45     6     1    1
    46     8     1    1
    47    17    12   ar
    48    22    15    1
    49     9    10    1
    50    18    23    1
@<TRIPOS>MOLECULE
*****
 45 50 0 0 0
SMALL
GASTEIGER

@<TRIPOS>ATOM
      1 C         137.9306  142.6815  163.8905 C.3     1  UNL1        0.0932
      2 C         137.7309  142.5726  162.4079 C.3     1  UNL1        0.0286
      3 C         137.7002  141.2238  161.7523 C.3     1  UNL1        0.0193
      4 C         137.8691  139.9839  162.5794 C.3     1  UNL1        0.0700
      5 C         138.0688  140.0928  164.0620 C.3     1  UNL1        0.0193
      6 C         138.0995  141.4416  164.7176 C.3     1  UNL1        0.0286
      7 C         137.8931  140.7009  162.9834 C.3     1  UNL1        0.1562
      8 O         137.9209  141.9205  163.5762 O.3     1  UNL1       -0.3572
      9 N         137.8384  138.6351  161.9238 N.3     1  UNL1       -0.2926
     10 H         137.1187  138.6748  161.2022 H       1  UNL1        0.1236
     11 C         139.0747  138.0893  161.2728 C.3     1  UNL1        0.1152
     12 C         140.4243  138.3944  161.8518 C.ar    1  UNL1        0.0765
     13 C         141.4791  139.0346  160.9987 C.ar    1  UNL1        0.0193
     14 C         142.8287  139.3398  161.5777 C.ar    1  UNL1        0.0411
     15 C         143.1237  139.0048  163.0098 C.ar    1  UNL1        0.1708
     16 C         142.0690  138.3647  163.8629 C.ar    1  UNL1        0.1682
     17 N         140.7193  138.0595  163.2839 N.ar    1  UNL1       -0.2304
     18 N         142.3640  138.0297  165.2949 N.am    1  UNL1       -0.2639
     19 C         143.7136  138.3349  165.8739 C.2     1  UNL1        0.2718
     20 O         144.0086  137.9999  167.3060 O.2     1  UNL1       -0.2707
     21 C         144.7684  138.9751  165.0208 C.3     1  UNL1        0.2898
     22 O         144.4734  139.3101  163.5888 O.3     1  UNL1       -0.4628
     23 H         141.6717  137.6095  165.8548 H       1  UNL1        0.1565
     24 C         137.9613  144.0303  164.5461 C.3     1  UNL1        0.0320
     25 C         139.2721  144.7217  164.7783 C.3     1  UNL1        0.0327
     26 C         143.1432  142.6332  165.7286 C.ar    1  UNL1        0.2249
     27 C         144.2264  142.5543  164.6940 C.ar    1  UNL1        0.0593
     28 C         144.0192  143.1715  163.3427 C.ar    1  UNL1        0.0254
     29 C         142.7289  143.8676  163.0259 C.ar    1  UNL1        0.0990
     30 N         142.5218  144.4848  161.6745 N.ar    1  UNL1       -0.2400
     31 C         141.2314  145.1810  161.3578 C.ar    1  UNL1        0.1281
     32 C         140.1482  145.2599  162.3924 C.ar    1  UNL1        0.1566
     33 F         138.8578  145.9561  162.0756 F       1  UNL1       -0.2028
     34 C         140.3553  144.6427  163.7437 C.ar    1  UNL1        0.0261
     35 C         141.6457  143.9466  164.0605 C.ar    1  UNL1        0.1002
     36 N         141.8528  143.3294  165.4118 N.ar    1  UNL1       -0.2104
     37 O         143.3503  142.0160  167.0800 O.3     1  UNL1       -0.4602
     38 C         142.1711  141.7244  167.9600 C.3     1  UNL1        0.2071
     39 C         141.4001  140.4500  167.7829 C.3     1  UNL1        0.0480
     40 C         140.3376  140.0726  168.7722 C.3     1  UNL1        0.0155
     41 C         139.5403  141.1405  169.4606 C.3     1  UNL1        0.1097
     42 C         140.0382  141.7393  170.7426 C.2     1  UNL1        0.3171
     43 O         140.6786  140.8650  171.7797 O.2     1  UNL1       -0.2501
     44 C         140.3795  144.1935  169.9613 C.3     1  UNL1        0.2556
     45 O         139.8956  143.2123  170.9875 O.3     1  UNL1       -0.4444
@<TRIPOS>BOND
     1    44    45    1
     2    45    42    1
     3    42    43    2
     4    42    41    1
     5    41    40    1
     6    40    39    1
     7    39    38    1
     8    38    37    1
     9    37    26    1
    10    26    27   ar
    11    27    28   ar
    12    28    29   ar
    13    29    30   ar
    14    30    31   ar
    15    31    32   ar
    16    32    33    1
    17    32    34   ar
    18    34    25    1
    19    25    24    1
    20    24     1    1
    21     1     2    1
    22     2     3    1
    23     3     4    1
    24     4     9    1
    25     9    11    1
    26    11    12    1
    27    12    13   ar
    28    13    14   ar
    29    14    15   ar
    30    15    16   ar
    31    16    17   ar
    32    16    18    1
    33    18    19   am
    34    19    20    2
    35    19    21    1
    36    21    22    1
    37     4     5    1
    38     5     6    1
    39     4     7    1
    40     7     8    1
    41    34    35   ar
    42    35    36   ar
    43    36    26   ar
    44    35    29   ar
    45     6     1    1
    46     8     1    1
    47    17    12   ar
    48    22    15    1
    49     9    10    1
    50    18    23    1
@<TRIPOS>MOLECULE
*****
 45 50 0 0 0
SMALL
GASTEIGER

@<TRIPOS>ATOM
      1 C         138.3088  140.1063  164.4482 C.3     1  UNL1        0.0932
      2 C         137.7073  140.2655  163.0833 C.3     1  UNL1        0.0286
      3 C         137.5018  141.6360  162.5094 C.3     1  UNL1        0.0193
      4 C         137.8977  142.8475  163.3005 C.3     1  UNL1        0.0700
      5 C         138.4992  142.6883  164.6654 C.3     1  UNL1        0.0193
      6 C         138.7047  141.3177  165.2392 C.3     1  UNL1        0.0286
      7 C         138.0297  142.1170  163.6567 C.3     1  UNL1        0.1562
      8 O         138.2156  140.8777  164.1757 O.3     1  UNL1       -0.3572
      9 N         137.6921  144.2180  162.7266 N.3     1  UNL1       -0.2926
     10 H         137.0676  144.7131  163.3631 H       1  UNL1        0.1236
     11 C         138.8699  145.1162  162.4896 C.3     1  UNL1        0.1152
     12 C         140.0884  144.5872  161.7931 C.ar    1  UNL1        0.0765
     13 C         140.1726  144.6256  160.2959 C.ar    1  UNL1        0.0193
     14 C         141.3912  144.0965  159.5994 C.ar    1  UNL1        0.0411
     15 C         142.5256  143.5291  160.4001 C.ar    1  UNL1        0.1708
     16 C         142.4415  143.4907  161.8972 C.ar    1  UNL1        0.1682
     17 N         141.2229  144.0197  162.5937 N.ar    1  UNL1       -0.2304
     18 N         143.5759  142.9232  162.6978 N.am    1  UNL1       -0.2639
     19 C         144.7945  142.3941  162.0013 C.2     1  UNL1        0.2718
     20 O         145.9290  141.8267  162.8020 O.2     1  UNL1       -0.2707
     21 C         144.8787  142.4325  160.5041 C.3     1  UNL1        0.2898
     22 O         143.7443  143.0000  159.7035 O.3     1  UNL1       -0.4628
     23 H         143.5207  142.8980  163.6804 H       1  UNL1        0.1565
     24 C         138.5143  138.7358  165.0221 C.3     1  UNL1        0.0320
     25 C         139.2024  137.6784  164.2106 C.3     1  UNL1        0.0327
     26 C         143.1047  138.7507  166.1784 C.ar    1  UNL1        0.2249
     27 C         144.2954  139.1062  165.3383 C.ar    1  UNL1        0.0593
     28 C         144.1854  139.1043  163.8424 C.ar    1  UNL1        0.0254
     29 C         142.8847  138.7468  163.1864 C.ar    1  UNL1        0.0990
     30 N         142.7747  138.7449  161.6905 N.ar    1  UNL1       -0.2400
     31 C         141.4740  138.3875  161.0346 C.ar    1  UNL1        0.1281
     32 C         140.2831  138.0319  161.8746 C.ar    1  UNL1        0.1566
     33 F         138.9824  137.6745  161.2187 F       1  UNL1       -0.2028
     34 C         140.3931  138.0339  163.3706 C.ar    1  UNL1        0.0261
     35 C         141.6940  138.3913  164.0265 C.ar    1  UNL1        0.1002
     36 N         141.8040  138.3933  165.5224 N.ar    1  UNL1       -0.2104
     37 O         143.2147  138.7527  167.6743 O.3     1  UNL1       -0.4602
     38 C         142.6883  139.9145  168.4635 C.3     1  UNL1        0.2071
     39 C         142.4575  141.2352  167.7908 C.3     1  UNL1        0.0480
     40 C         142.3236  142.4825  168.6133 C.3     1  UNL1        0.0155
     41 C         141.8111  142.4015  170.0206 C.3     1  UNL1        0.1097
     42 C         140.3965  142.7948  170.3274 C.2     1  UNL1        0.3171
     43 O         139.9941  144.2393  170.2878 O.2     1  UNL1       -0.2501
     44 C         139.1648  140.5808  169.7519 C.3     1  UNL1        0.2556
     45 O         139.3841  141.7435  170.6739 O.3     1  UNL1       -0.4444
@<TRIPOS>BOND
     1    44    45    1
     2    45    42    1
     3    42    43    2
     4    42    41    1
     5    41    40    1
     6    40    39    1
     7    39    38    1
     8    38    37    1
     9    37    26    1
    10    26    27   ar
    11    27    28   ar
    12    28    29   ar
    13    29    30   ar
    14    30    31   ar
    15    31    32   ar
    16    32    33    1
    17    32    34   ar
    18    34    25    1
    19    25    24    1
    20    24     1    1
    21     1     2    1
    22     2     3    1
    23     3     4    1
    24     4     9    1
    25     9    11    1
    26    11    12    1
    27    12    13   ar
    28    13    14   ar
    29    14    15   ar
    30    15    16   ar
    31    16    17   ar
    32    16    18    1
    33    18    19   am
    34    19    20    2
    35    19    21    1
    36    21    22    1
    37     4     5    1
    38     5     6    1
    39     4     7    1
    40     7     8    1
    41    34    35   ar
    42    35    36   ar
    43    36    26   ar
    44    35    29   ar
    45     6     1    1
    46     8     1    1
    47    17    12   ar
    48    22    15    1
    49     9    10    1
    50    18    23    1
@<TRIPOS>MOLECULE
*****
 45 50 0 0 0
SMALL
GASTEIGER

@<TRIPOS>ATOM
      1 C         143.6768  143.4556  164.3253 C.3     1  UNL1        0.0932
      2 C         143.3953  144.5489  163.3376 C.3     1  UNL1        0.0286
      3 C         142.0181  145.1352  163.2401 C.3     1  UNL1        0.0193
      4 C         140.9224  144.6283  164.1303 C.3     1  UNL1        0.0700
      5 C         141.2039  143.5351  165.1180 C.3     1  UNL1        0.0193
      6 C         142.5811  142.9487  165.2155 C.3     1  UNL1        0.0286
      7 C         141.6611  144.2760  164.2202 C.3     1  UNL1        0.1562
      8 O         142.9064  143.7458  164.3084 O.3     1  UNL1       -0.3572
      9 N         139.5452  145.2147  164.0328 N.3     1  UNL1       -0.2926
     10 H         139.6598  146.1928  163.7671 H       1  UNL1        0.1236
     11 C         138.5435  144.6232  163.0859 C.3     1  UNL1        0.1152
     12 C         138.4650  143.1357  162.9100 C.ar    1  UNL1        0.0765
     13 C         137.8763  142.2823  163.9942 C.ar    1  UNL1        0.0193
     14 C         137.7978  140.7947  163.8184 C.ar    1  UNL1        0.0411
     15 C         138.3080  140.1604  162.5584 C.ar    1  UNL1        0.1708
     16 C         138.8967  141.0137  161.4743 C.ar    1  UNL1        0.1682
     17 N         138.9752  142.5014  161.6501 N.ar    1  UNL1       -0.2304
     18 N         139.4069  140.3794  160.2144 N.am    1  UNL1       -0.2639
     19 C         139.3284  138.8919  160.0386 C.2     1  UNL1        0.2718
     20 O         139.8386  138.2576  158.7787 O.2     1  UNL1       -0.2707
     21 C         138.7397  138.0385  161.1227 C.3     1  UNL1        0.2898
     22 O         138.2295  138.6728  162.3827 O.3     1  UNL1       -0.4628
     23 H         139.7933  140.9395  159.5029 H       1  UNL1        0.1565
     24 C         145.0540  142.8692  164.4228 C.3     1  UNL1        0.0320
     25 C         145.4759  141.7842  163.4768 C.3     1  UNL1        0.0327
     26 C         143.1867  138.6628  165.7717 C.ar    1  UNL1        0.2249
     27 C         142.1513  137.8296  165.0763 C.ar    1  UNL1        0.0593
     28 C         141.8789  138.0369  163.6159 C.ar    1  UNL1        0.0254
     29 C         142.6419  139.0774  162.8509 C.ar    1  UNL1        0.0990
     30 N         142.3695  139.2846  161.3905 N.ar    1  UNL1       -0.2400
     31 C         143.1326  140.3251  160.6255 C.ar    1  UNL1        0.1281
     32 C         144.1680  141.1583  161.3209 C.ar    1  UNL1        0.1566
     33 F         144.9311  142.1987  160.5560 F       1  UNL1       -0.2028
     34 C         144.4404  140.9510  162.7814 C.ar    1  UNL1        0.0261
     35 C         143.6774  139.9105  163.5463 C.ar    1  UNL1        0.1002
     36 N         143.9498  139.7033  165.0068 N.ar    1  UNL1       -0.2104
     37 O         143.4591  138.4555  167.2322 O.3     1  UNL1       -0.4602
     38 C         142.6489  139.1911  168.2580 C.3     1  UNL1        0.2071
     39 C         142.5187  140.6835  168.1817 C.3     1  UNL1        0.0480
     40 C         141.1726  141.3277  168.3342 C.3     1  UNL1        0.0155
     41 C         140.4824  141.3165  169.6660 C.3     1  UNL1        0.1097
     42 C         140.8712  142.3098  170.7205 C.2     1  UNL1        0.3171
     43 O         140.3369  142.1708  172.1153 O.2     1  UNL1       -0.2501
     44 C         143.2584  143.3348  170.6892 C.3     1  UNL1        0.2556
     45 O         141.7944  143.4421  170.3805 O.3     1  UNL1       -0.4444
@<TRIPOS>BOND
     1    44    45    1
     2    45    42    1
     3    42    43    2
     4    42    41    1
     5    41    40    1
     6    40    39    1
     7    39    38    1
     8    38    37    1
     9    37    26    1
    10    26    27   ar
    11    27    28   ar
    12    28    29   ar
    13    29    30   ar
    14    30    31   ar
    15    31    32   ar
    16    32    33    1
    17    32    34   ar
    18    34    25    1
    19    25    24    1
    20    24     1    1
    21     1     2    1
    22     2     3    1
    23     3     4    1
    24     4     9    1
    25     9    11    1
    26    11    12    1
    27    12    13   ar
    28    13    14   ar
    29    14    15   ar
    30    15    16   ar
    31    16    17   ar
    32    16    18    1
    33    18    19   am
    34    19    20    2
    35    19    21    1
    36    21    22    1
    37     4     5    1
    38     5     6    1
    39     4     7    1
    40     7     8    1
    41    34    35   ar
    42    35    36   ar
    43    36    26   ar
    44    35    29   ar
    45     6     1    1
    46     8     1    1
    47    17    12   ar
    48    22    15    1
    49     9    10    1
    50    18    23    1
@<TRIPOS>MOLECULE
*****
 45 50 0 0 0
SMALL
GASTEIGER

@<TRIPOS>ATOM
      1 C         143.8159  142.1525  163.3026 C.3     1  UNL1        0.0932
      2 C         143.6467  142.7936  161.9571 C.3     1  UNL1        0.0286
      3 C         142.7990  144.0227  161.8132 C.3     1  UNL1        0.0193
      4 C         142.1206  144.6108  163.0149 C.3     1  UNL1        0.0700
      5 C         142.2899  143.9698  164.3604 C.3     1  UNL1        0.0193
      6 C         143.1376  142.7406  164.5042 C.3     1  UNL1        0.0286
      7 C         142.5752  143.9364  163.1431 C.3     1  UNL1        0.1562
      8 O         143.3416  142.8249  163.2733 O.3     1  UNL1       -0.3572
      9 N         141.2730  145.8399  162.8710 N.3     1  UNL1       -0.2926
     10 H         141.6352  146.3551  162.0686 H       1  UNL1        0.1236
     11 C         139.7922  145.7105  162.6699 C.3     1  UNL1        0.1152
     12 C         139.1833  144.3612  162.4279 C.ar    1  UNL1        0.0765
     13 C         138.5419  143.6139  163.5594 C.ar    1  UNL1        0.0193
     14 C         137.9330  142.2646  163.3174 C.ar    1  UNL1        0.0411
     15 C         137.9654  141.6626  161.9439 C.ar    1  UNL1        0.1708
     16 C         138.6067  142.4098  160.8124 C.ar    1  UNL1        0.1682
     17 N         139.2157  143.7592  161.0544 N.ar    1  UNL1       -0.2304
     18 N         138.6391  141.8077  159.4389 N.am    1  UNL1       -0.2639
     19 C         138.0302  140.4584  159.1970 C.2     1  UNL1        0.2718
     20 O         138.0626  139.8564  157.8235 O.2     1  UNL1       -0.2707
     21 C         137.3889  139.7111  160.3285 C.3     1  UNL1        0.2898
     22 O         137.3565  140.3132  161.7020 O.3     1  UNL1       -0.4628
     23 H         139.0600  142.2982  158.6963 H       1  UNL1        0.1565
     24 C         144.6636  140.9234  163.4465 C.3     1  UNL1        0.0320
     25 C         144.0786  139.6735  164.0344 C.3     1  UNL1        0.0327
     26 C         140.0315  139.8111  165.9971 C.ar    1  UNL1        0.2249
     27 C         138.8560  139.1516  165.3389 C.ar    1  UNL1        0.0593
     28 C         139.0295  138.4463  164.0265 C.ar    1  UNL1        0.0254
     29 C         140.3785  138.4004  163.3723 C.ar    1  UNL1        0.0990
     30 N         140.5520  137.6950  162.0599 N.ar    1  UNL1       -0.2400
     31 C         141.9009  137.6491  161.4057 C.ar    1  UNL1        0.1281
     32 C         143.0766  138.3086  162.0638 C.ar    1  UNL1        0.1566
     33 F         144.4255  138.2628  161.4096 F       1  UNL1       -0.2028
     34 C         142.9031  139.0140  163.3762 C.ar    1  UNL1        0.0261
     35 C         141.5540  139.0599  164.0304 C.ar    1  UNL1        0.1002
     36 N         141.3805  139.7652  165.3428 N.ar    1  UNL1       -0.2104
     37 O         139.8580  140.5165  167.3094 O.3     1  UNL1       -0.4602
     38 C         139.0724  139.8688  168.4109 C.3     1  UNL1        0.2071
     39 C         139.1028  140.4476  169.7944 C.3     1  UNL1        0.0480
     40 C         140.2107  140.0806  170.7367 C.3     1  UNL1        0.0155
     41 C         141.5986  140.5983  170.5006 C.3     1  UNL1        0.1097
     42 C         142.5184  139.8768  169.5607 C.2     1  UNL1        0.3171
     43 O         142.9062  138.4540  169.8355 O.2     1  UNL1       -0.2501
     44 C         142.8635  142.0583  168.1926 C.3     1  UNL1        0.2556
     45 O         143.0505  140.5779  168.3461 O.3     1  UNL1       -0.4444
@<TRIPOS>BOND
     1    44    45    1
     2    45    42    1
     3    42    43    2
     4    42    41    1
     5    41    40    1
     6    40    39    1
     7    39    38    1
     8    38    37    1
     9    37    26    1
    10    26    27   ar
    11    27    28   ar
    12    28    29   ar
    13    29    30   ar
    14    30    31   ar
    15    31    32   ar
    16    32    33    1
    17    32    34   ar
    18    34    25    1
    19    25    24    1
    20    24     1    1
    21     1     2    1
    22     2     3    1
    23     3     4    1
    24     4     9    1
    25     9    11    1
    26    11    12    1
    27    12    13   ar
    28    13    14   ar
    29    14    15   ar
    30    15    16   ar
    31    16    17   ar
    32    16    18    1
    33    18    19   am
    34    19    20    2
    35    19    21    1
    36    21    22    1
    37     4     5    1
    38     5     6    1
    39     4     7    1
    40     7     8    1
    41    34    35   ar
    42    35    36   ar
    43    36    26   ar
    44    35    29   ar
    45     6     1    1
    46     8     1    1
    47    17    12   ar
    48    22    15    1
    49     9    10    1
    50    18    23    1
@<TRIPOS>MOLECULE
*****
 45 50 0 0 0
SMALL
GASTEIGER

@<TRIPOS>ATOM
      1 C         140.4778  143.8480  164.4164 C.3     1  UNL1        0.0932
      2 C         141.0468  143.1139  165.5942 C.3     1  UNL1        0.0286
      3 C         142.4885  142.7000  165.5949 C.3     1  UNL1        0.0193
      4 C         143.3614  143.0202  164.4177 C.3     1  UNL1        0.0700
      5 C         142.7924  143.7543  163.2399 C.3     1  UNL1        0.0193
      6 C         141.3506  144.1682  163.2392 C.3     1  UNL1        0.0286
      7 C         142.5774  143.2674  164.3716 C.3     1  UNL1        0.1562
      8 O         141.2737  143.6417  164.3710 O.3     1  UNL1       -0.3572
      9 N         144.8031  142.6063  164.4185 N.3     1  UNL1       -0.2926
     10 H         145.1967  142.9117  165.3085 H       1  UNL1        0.1236
     11 C         145.1684  141.1604  164.2568 C.3     1  UNL1        0.1152
     12 C         144.4261  140.3047  163.2738 C.ar    1  UNL1        0.0765
     13 C         143.4712  139.2563  163.7630 C.ar    1  UNL1        0.0193
     14 C         142.7288  138.4006  162.7799 C.ar    1  UNL1        0.0411
     15 C         142.9413  138.5930  161.3076 C.ar    1  UNL1        0.1708
     16 C         143.8961  139.6413  160.8183 C.ar    1  UNL1        0.1682
     17 N         144.6385  140.4971  161.8014 N.ar    1  UNL1       -0.2304
     18 N         144.1086  139.8337  159.3460 N.am    1  UNL1       -0.2639
     19 C         143.3662  138.9779  158.3629 C.2     1  UNL1        0.2718
     20 O         143.5786  139.1704  156.8905 O.2     1  UNL1       -0.2707
     21 C         142.4113  137.9296  158.8521 C.3     1  UNL1        0.2898
     22 O         142.1988  137.7372  160.3245 O.3     1  UNL1       -0.4628
     23 H         144.7353  140.5217  159.0248 H       1  UNL1        0.1565
     24 C         139.0361  144.2619  164.4156 C.3     1  UNL1        0.0320
     25 C         137.9570  143.2212  164.4667 C.3     1  UNL1        0.0327
     26 C         138.8146  139.2780  166.4581 C.ar    1  UNL1        0.2249
     27 C         138.9351  138.0314  165.6325 C.ar    1  UNL1        0.0593
     28 C         138.7699  138.0993  164.1432 C.ar    1  UNL1        0.0254
     29 C         138.4840  139.4136  163.4794 C.ar    1  UNL1        0.0990
     30 N         138.3187  139.4814  161.9901 N.ar    1  UNL1       -0.2400
     31 C         138.0329  140.7958  161.3263 C.ar    1  UNL1        0.1281
     32 C         137.9123  142.0424  162.1518 C.ar    1  UNL1        0.1566
     33 F         137.6264  143.3568  161.4880 F       1  UNL1       -0.2028
     34 C         138.0775  141.9746  163.6411 C.ar    1  UNL1        0.0261
     35 C         138.3634  140.6602  164.3049 C.ar    1  UNL1        0.1002
     36 N         138.5287  140.5924  165.7943 N.ar    1  UNL1       -0.2104
     37 O         138.9798  139.2102  167.9474 O.3     1  UNL1       -0.4602
     38 C         140.1015  139.9518  168.6121 C.3     1  UNL1        0.2071
     39 C         141.4547  140.0006  167.9667 C.3     1  UNL1        0.0480
     40 C         142.6848  140.1416  168.8134 C.3     1  UNL1        0.0155
     41 C         142.6581  141.0100  170.0362 C.3     1  UNL1        0.1097
     42 C         142.7678  142.4998  169.9007 C.2     1  UNL1        0.3171
     43 O         144.0525  143.1919  170.2483 O.2     1  UNL1       -0.2501
     44 C         140.3047  143.2755  170.1858 C.3     1  UNL1        0.2556
     45 O         141.5930  143.2975  169.4177 O.3     1  UNL1       -0.4444
@<TRIPOS>BOND
     1    44    45    1
     2    45    42    1
     3    42    43    2
     4    42    41    1
     5    41    40    1
     6    40    39    1
     7    39    38    1
     8    38    37    1
     9    37    26    1
    10    26    27   ar
    11    27    28   ar
    12    28    29   ar
    13    29    30   ar
    14    30    31   ar
    15    31    32   ar
    16    32    33    1
    17    32    34   ar
    18    34    25    1
    19    25    24    1
    20    24     1    1
    21     1     2    1
    22     2     3    1
    23     3     4    1
    24     4     9    1
    25     9    11    1
    26    11    12    1
    27    12    13   ar
    28    13    14   ar
    29    14    15   ar
    30    15    16   ar
    31    16    17   ar
    32    16    18    1
    33    18    19   am
    34    19    20    2
    35    19    21    1
    36    21    22    1
    37     4     5    1
    38     5     6    1
    39     4     7    1
    40     7     8    1
    41    34    35   ar
    42    35    36   ar
    43    36    26   ar
    44    35    29   ar
    45     6     1    1
    46     8     1    1
    47    17    12   ar
    48    22    15    1
    49     9    10    1
    50    18    23    1
@<TRIPOS>MOLECULE
*****
 45 50 0 0 0
SMALL
GASTEIGER

@<TRIPOS>ATOM
      1 C         143.7506  141.4857  165.2410 C.3     1  UNL1        0.0932
      2 C         144.5159  142.0557  164.0837 C.3     1  UNL1        0.0286
      3 C         144.8130  141.2012  162.8873 C.3     1  UNL1        0.0193
      4 C         144.3449  139.7766  162.8482 C.3     1  UNL1        0.0700
      5 C         143.5796  139.2066  164.0055 C.3     1  UNL1        0.0193
      6 C         143.2825  140.0612  165.2020 C.3     1  UNL1        0.0286
      7 C         144.1581  140.2060  163.5254 C.3     1  UNL1        0.1562
      8 O         143.8895  140.9787  164.6072 O.3     1  UNL1       -0.3572
      9 N         144.6420  138.9220  161.6517 N.3     1  UNL1       -0.2926
     10 H         144.6469  137.9546  161.9748 H       1  UNL1        0.1236
     11 C         143.7435  138.9732  160.4517 C.3     1  UNL1        0.1152
     12 C         142.8108  140.1325  160.2621 C.ar    1  UNL1        0.0765
     13 C         141.3859  140.0315  160.7200 C.ar    1  UNL1        0.0193
     14 C         140.4532  141.1908  160.5304 C.ar    1  UNL1        0.0411
     15 C         140.9452  142.4511  159.8828 C.ar    1  UNL1        0.1708
     16 C         142.3700  142.5522  159.4249 C.ar    1  UNL1        0.1682
     17 N         143.3028  141.3929  159.6145 N.ar    1  UNL1       -0.2304
     18 N         142.8620  143.8126  158.7773 N.am    1  UNL1       -0.2639
     19 C         141.9293  144.9719  158.5877 C.2     1  UNL1        0.2718
     20 O         142.4213  146.2323  157.9401 O.2     1  UNL1       -0.2707
     21 C         140.5044  144.8708  159.0456 C.3     1  UNL1        0.2898
     22 O         140.0124  143.6105  159.6932 O.3     1  UNL1       -0.4628
     23 H         143.7971  143.8789  158.4768 H       1  UNL1        0.1565
     24 C         143.4535  142.3402  166.4375 C.3     1  UNL1        0.0320
     25 C         142.0326  142.6604  166.7962 C.3     1  UNL1        0.0327
     26 C         138.7435  140.1277  165.0592 C.ar    1  UNL1        0.2249
     27 C         137.9657  139.1989  165.9436 C.ar    1  UNL1        0.0593
     28 C         138.2842  139.1142  167.4070 C.ar    1  UNL1        0.0254
     29 C         139.3805  139.9585  167.9860 C.ar    1  UNL1        0.0990
     30 N         139.6990  139.8738  169.4493 N.ar    1  UNL1       -0.2400
     31 C         140.7953  140.7181  170.0283 C.ar    1  UNL1        0.1281
     32 C         141.5733  141.6470  169.1439 C.ar    1  UNL1        0.1566
     33 F         142.6696  142.4912  169.7229 F       1  UNL1       -0.2028
     34 C         141.2548  141.7316  167.6806 C.ar    1  UNL1        0.0261
     35 C         140.1584  140.8873  167.1016 C.ar    1  UNL1        0.1002
     36 N         139.8399  140.9719  165.6382 N.ar    1  UNL1       -0.2104
     37 O         138.4250  140.2123  163.5959 O.3     1  UNL1       -0.4602
     38 C         137.4808  141.2639  163.0934 C.3     1  UNL1        0.2071
     39 C         137.9164  142.6982  163.0378 C.3     1  UNL1        0.0480
     40 C         137.7757  143.5722  164.2488 C.3     1  UNL1        0.0155
     41 C         138.7592  144.6779  164.4940 C.3     1  UNL1        0.1097
     42 C         139.8367  144.9598  163.4893 C.2     1  UNL1        0.3171
     43 O         139.5678  145.8870  162.3412 O.2     1  UNL1       -0.2501
     44 C         142.2539  144.5794  162.6159 C.3     1  UNL1        0.2556
     45 O         141.1832  144.3144  163.6326 O.3     1  UNL1       -0.4444
@<TRIPOS>BOND
     1    44    45    1
     2    45    42    1
     3    42    43    2
     4    42    41    1
     5    41    40    1
     6    40    39    1
     7    39    38    1
     8    38    37    1
     9    37    26    1
    10    26    27   ar
    11    27    28   ar
    12    28    29   ar
    13    29    30   ar
    14    30    31   ar
    15    31    32   ar
    16    32    33    1
    17    32    34   ar
    18    34    25    1
    19    25    24    1
    20    24     1    1
    21     1     2    1
    22     2     3    1
    23     3     4    1
    24     4     9    1
    25     9    11    1
    26    11    12    1
    27    12    13   ar
    28    13    14   ar
    29    14    15   ar
    30    15    16   ar
    31    16    17   ar
    32    16    18    1
    33    18    19   am
    34    19    20    2
    35    19    21    1
    36    21    22    1
    37     4     5    1
    38     5     6    1
    39     4     7    1
    40     7     8    1
    41    34    35   ar
    42    35    36   ar
    43    36    26   ar
    44    35    29   ar
    45     6     1    1
    46     8     1    1
    47    17    12   ar
    48    22    15    1
    49     9    10    1
    50    18    23    1
@<TRIPOS>MOLECULE
*****
 45 50 0 0 0
SMALL
GASTEIGER

@<TRIPOS>ATOM
      1 C         141.8203  138.1679  164.2840 C.3     1  UNL1        0.0932
      2 C         142.8711  138.5071  165.2993 C.3     1  UNL1        0.0286
      3 C         144.0929  139.2732  164.8869 C.3     1  UNL1        0.0193
      4 C         144.2641  139.7001  163.4591 C.3     1  UNL1        0.0700
      5 C         143.2134  139.3608  162.4438 C.3     1  UNL1        0.0193
      6 C         141.9914  138.5947  162.8563 C.3     1  UNL1        0.0286
      7 C         143.5776  139.2820  163.6376 C.3     1  UNL1        0.1562
      8 O         142.4727  138.5893  164.0105 O.3     1  UNL1       -0.3572
      9 N         145.4860  140.4661  163.0467 N.3     1  UNL1       -0.2926
     10 H         145.5822  140.3463  162.0383 H       1  UNL1        0.1236
     11 C         145.5751  141.9387  163.3181 C.3     1  UNL1        0.1152
     12 C         144.3566  142.8022  163.1784 C.ar    1  UNL1        0.0765
     13 C         143.6394  143.2911  164.4019 C.ar    1  UNL1        0.0193
     14 C         142.4209  144.1545  164.2622 C.ar    1  UNL1        0.0411
     15 C         141.9195  144.5292  162.8990 C.ar    1  UNL1        0.1708
     16 C         142.6365  144.0404  161.6756 C.ar    1  UNL1        0.1682
     17 N         143.8551  143.1768  161.8153 N.ar    1  UNL1       -0.2304
     18 N         142.1350  144.4150  160.3125 N.am    1  UNL1       -0.2639
     19 C         140.9165  145.2785  160.1727 C.2     1  UNL1        0.2718
     20 O         140.4150  145.6531  158.8096 O.2     1  UNL1       -0.2707
     21 C         140.1994  145.7674  161.3962 C.3     1  UNL1        0.2898
     22 O         140.7009  145.3927  162.7594 O.3     1  UNL1       -0.4628
     23 H         142.6057  144.0942  159.5095 H       1  UNL1        0.1565
     24 C         140.5985  137.4018  164.6965 C.3     1  UNL1        0.0320
     25 C         139.3698  138.1353  165.1465 C.3     1  UNL1        0.0327
     26 C         137.9480  140.5690  161.6387 C.ar    1  UNL1        0.2249
     27 C         137.9540  142.0671  161.7135 C.ar    1  UNL1        0.0593
     28 C         138.4340  142.7540  162.9577 C.ar    1  UNL1        0.0254
     29 C         138.9079  141.9427  164.1269 C.ar    1  UNL1        0.0990
     30 N         139.3879  142.6296  165.3711 N.ar    1  UNL1       -0.2400
     31 C         139.8618  141.8184  166.5403 C.ar    1  UNL1        0.1281
     32 C         139.8558  140.3202  166.4655 C.ar    1  UNL1        0.1566
     33 F         140.3297  139.5090  167.6348 F       1  UNL1       -0.2028
     34 C         139.3758  139.6333  165.2214 C.ar    1  UNL1        0.0261
     35 C         138.9019  140.4447  164.0521 C.ar    1  UNL1        0.1002
     36 N         138.4219  139.7578  162.8080 N.ar    1  UNL1       -0.2104
     37 O         137.4680  139.8822  160.3945 O.3     1  UNL1       -0.4602
     38 C         137.9416  140.3488  159.0500 C.3     1  UNL1        0.2071
     39 C         139.2482  139.8559  158.5024 C.3     1  UNL1        0.0480
     40 C         140.3828  139.5465  159.4337 C.3     1  UNL1        0.0155
     41 C         141.7712  140.0082  159.1035 C.3     1  UNL1        0.1097
     42 C         142.8280  139.0074  158.7410 C.2     1  UNL1        0.3171
     43 O         142.7484  137.6067  159.2721 O.2     1  UNL1       -0.2501
     44 C         144.2534  140.8590  157.6052 C.3     1  UNL1        0.2556
     45 O         143.9645  139.4070  157.8473 O.3     1  UNL1       -0.4444
@<TRIPOS>BOND
     1    44    45    1
     2    45    42    1
     3    42    43    2
     4    42    41    1
     5    41    40    1
     6    40    39    1
     7    39    38    1
     8    38    37    1
     9    37    26    1
    10    26    27   ar
    11    27    28   ar
    12    28    29   ar
    13    29    30   ar
    14    30    31   ar
    15    31    32   ar
    16    32    33    1
    17    32    34   ar
    18    34    25    1
    19    25    24    1
    20    24     1    1
    21     1     2    1
    22     2     3    1
    23     3     4    1
    24     4     9    1
    25     9    11    1
    26    11    12    1
    27    12    13   ar
    28    13    14   ar
    29    14    15   ar
    30    15    16   ar
    31    16    17   ar
    32    16    18    1
    33    18    19   am
    34    19    20    2
    35    19    21    1
    36    21    22    1
    37     4     5    1
    38     5     6    1
    39     4     7    1
    40     7     8    1
    41    34    35   ar
    42    35    36   ar
    43    36    26   ar
    44    35    29   ar
    45     6     1    1
    46     8     1    1
    47    17    12   ar
    48    22    15    1
    49     9    10    1
    50    18    23    1
