@<TRIPOS>MOLECULE
*****
 37 41 0 0 0
SMALL
GASTEIGER

@<TRIPOS>ATOM
      1 C         139.2428  139.8801  167.8822 C.ar    1  UNL1        0.1981
      2 N         139.2419  140.0990  169.3662 N.ar    1  UNL1       -0.2138
      3 C         140.4689  140.8862  169.7194 C.ar    1  UNL1        0.0999
      4 C         140.9929  141.3939  171.0300 C.ar    1  UNL1        0.0207
      5 C         142.2762  142.1692  171.0749 C.ar    1  UNL1        0.0016
      6 C         143.0355  142.4368  169.8093 C.ar    1  UNL1        0.0016
      7 C         142.5115  141.9291  168.4987 C.ar    1  UNL1        0.0188
      8 C         141.2282  141.1538  168.4538 C.ar    1  UNL1        0.0801
      9 N         140.4705  140.5320  167.3184 N.ar    1  UNL1       -0.2956
     10 N         138.1994  139.1393  167.0996 N.pl3   1  UNL1       -0.3058
     11 H         137.4068  138.7759  167.5568 H       1  UNL1        0.1495
     12 N         138.6918  138.5779  162.6620 N.3     1  UNL1       -0.2723
     13 C         138.0621  139.8310  163.1941 C.3     1  UNL1        0.0738
     14 C         137.8979  140.0182  164.6734 C.3     1  UNL1        0.0369
     15 C         138.3635  138.9522  165.6204 C.3     1  UNL1        0.0745
     16 C         138.9932  137.6991  165.0882 C.3     1  UNL1        0.0369
     17 C         139.1573  137.5120  163.6091 C.3     1  UNL1        0.0738
     18 C         138.8559  138.3908  161.1828 C.3     1  UNL1        0.0768
     19 C         140.2091  138.0886  160.6106 C.3     1  UNL1        0.0437
     20 C         143.8379  140.2613  162.1474 C.ar    1  UNL1        0.0684
     21 C         143.3765  139.0025  162.8202 C.ar    1  UNL1        0.0100
     22 C         142.1669  138.2783  162.3080 C.ar    1  UNL1       -0.0035
     23 C         141.4187  138.8128  161.1228 C.ar    1  UNL1       -0.0207
     24 C         141.8801  140.0715  160.4500 C.ar    1  UNL1       -0.0035
     25 C         143.0897  140.7957  160.9623 C.ar    1  UNL1        0.0100
     26 N         146.2570  141.7097  163.1719 N.1     1  UNL1       -0.1908
     27 C         145.0474  140.9855  162.6596 C.1     1  UNL1        0.1004
     28 C         140.8702  140.5576  165.8728 C.3     1  UNL1        0.1355
     29 C         140.6227  141.7856  165.0479 C.ar    1  UNL1        0.0027
     30 C         141.1104  141.8480  163.6307 C.ar    1  UNL1       -0.0016
     31 C         140.8630  143.0760  162.8056 C.ar    1  UNL1        0.0123
     32 C         140.1278  144.2418  163.3978 C.ar    1  UNL1        0.0958
     33 C         139.6402  144.1794  164.8149 C.ar    1  UNL1        0.1494
     34 F         138.9051  145.3452  165.4070 F       1  UNL1       -0.2035
     35 C         139.8876  142.9514  165.6400 C.ar    1  UNL1        0.0279
     36 C         139.8804  145.4698  162.5728 C.1     1  UNL1        0.1027
     37 N         139.6330  146.6978  161.7477 N.1     1  UNL1       -0.1908
@<TRIPOS>BOND
     1    26    27    3
     2    27    20    1
     3    20    21   ar
     4    21    22   ar
     5    22    23   ar
     6    23    19    1
     7    19    18    1
     8    18    12    1
     9    12    13    1
    10    13    14    1
    11    14    15    1
    12    15    10    1
    13    10     1    1
    14     1     2   ar
    15     2     3   ar
    16     3     4   ar
    17     4     5   ar
    18     5     6   ar
    19     6     7   ar
    20     7     8   ar
    21     8     9   ar
    22     9    28    1
    23    28    29    1
    24    29    30   ar
    25    30    31   ar
    26    31    32   ar
    27    32    36    1
    28    36    37    3
    29    32    33   ar
    30    33    34    1
    31    33    35   ar
    32    15    16    1
    33    16    17    1
    34    23    24   ar
    35    24    25   ar
    36    25    20   ar
    37    17    12    1
    38     9     1   ar
    39    35    29   ar
    40     8     3   ar
    41    10    11    1
@<TRIPOS>MOLECULE
*****
 37 41 0 0 0
SMALL
GASTEIGER

@<TRIPOS>ATOM
      1 C         139.0858  139.1909  166.3401 C.ar    1  UNL1        0.1981
      2 N         138.5001  139.1453  167.7203 N.ar    1  UNL1       -0.2138
      3 C         139.2066  140.1698  168.5577 C.ar    1  UNL1        0.0999
      4 C         139.0511  140.5722  169.9943 C.ar    1  UNL1        0.0207
      5 C         139.9179  141.6535  170.5683 C.ar    1  UNL1        0.0016
      6 C         140.9402  142.3322  169.7057 C.ar    1  UNL1        0.0016
      7 C         141.0957  141.9298  168.2691 C.ar    1  UNL1        0.0188
      8 C         140.2289  140.8486  167.6951 C.ar    1  UNL1        0.0801
      9 N         140.1542  140.2436  166.3246 N.ar    1  UNL1       -0.2956
     10 N         138.6751  138.3343  165.1793 N.pl3   1  UNL1       -0.3058
     11 H         137.7919  137.8993  165.1766 H       1  UNL1        0.1495
     12 N         141.4800  137.7525  161.7088 N.3     1  UNL1       -0.2723
     13 C         140.1135  138.3274  161.4805 C.3     1  UNL1        0.0738
     14 C         139.1784  138.5213  162.6373 C.3     1  UNL1        0.0369
     15 C         139.6100  138.1404  164.0224 C.3     1  UNL1        0.0745
     16 C         140.9766  137.5655  164.2508 C.3     1  UNL1        0.0369
     17 C         141.9115  137.3716  163.0939 C.3     1  UNL1        0.0738
     18 C         142.4150  137.5586  160.5520 C.3     1  UNL1        0.0768
     19 C         143.6695  138.3752  160.4565 C.3     1  UNL1        0.0437
     20 C         143.7872  142.5287  162.1841 C.ar    1  UNL1        0.0684
     21 C         143.2039  142.2995  160.8213 C.ar    1  UNL1        0.0100
     22 C         143.1647  140.9150  160.2455 C.ar    1  UNL1       -0.0035
     23 C         143.7088  139.7597  161.0324 C.ar    1  UNL1       -0.0207
     24 C         144.2921  139.9889  162.3952 C.ar    1  UNL1       -0.0035
     25 C         144.3313  141.3734  162.9710 C.ar    1  UNL1        0.0100
     26 N         143.8658  145.2977  163.3358 N.1     1  UNL1       -0.1908
     27 C         143.8265  143.9132  162.7600 C.1     1  UNL1        0.1004
     28 C         140.9996  140.6245  165.1455 C.3     1  UNL1        0.1355
     29 C         140.6750  141.8585  164.3572 C.ar    1  UNL1        0.0027
     30 C         140.8011  143.2105  164.9947 C.ar    1  UNL1       -0.0016
     31 C         140.4765  144.4447  164.2064 C.ar    1  UNL1        0.0123
     32 C         140.0257  144.3269  162.7805 C.ar    1  UNL1        0.0958
     33 C         139.8996  142.9750  162.1431 C.ar    1  UNL1        0.1494
     34 F         139.4489  142.8573  160.7172 F       1  UNL1       -0.2035
     35 C         140.2243  141.7408  162.9313 C.ar    1  UNL1        0.0279
     36 C         139.7011  145.5611  161.9922 C.1     1  UNL1        0.1027
     37 N         139.3765  146.7953  161.2040 N.1     1  UNL1       -0.1908
@<TRIPOS>BOND
     1    26    27    3
     2    27    20    1
     3    20    21   ar
     4    21    22   ar
     5    22    23   ar
     6    23    19    1
     7    19    18    1
     8    18    12    1
     9    12    13    1
    10    13    14    1
    11    14    15    1
    12    15    10    1
    13    10     1    1
    14     1     2   ar
    15     2     3   ar
    16     3     4   ar
    17     4     5   ar
    18     5     6   ar
    19     6     7   ar
    20     7     8   ar
    21     8     9   ar
    22     9    28    1
    23    28    29    1
    24    29    30   ar
    25    30    31   ar
    26    31    32   ar
    27    32    36    1
    28    36    37    3
    29    32    33   ar
    30    33    34    1
    31    33    35   ar
    32    15    16    1
    33    16    17    1
    34    23    24   ar
    35    24    25   ar
    36    25    20   ar
    37    17    12    1
    38     9     1   ar
    39    35    29   ar
    40     8     3   ar
    41    10    11    1
@<TRIPOS>MOLECULE
*****
 37 41 0 0 0
SMALL
GASTEIGER

@<TRIPOS>ATOM
      1 C         143.7011  140.4255  160.6783 C.ar    1  UNL1        0.1981
      2 N         143.5970  140.9988  159.2962 N.ar    1  UNL1       -0.2138
      3 C         143.1918  139.8945  158.3655 C.ar    1  UNL1        0.0999
      4 C         142.9373  139.8702  156.8875 C.ar    1  UNL1        0.0207
      5 C         142.5363  138.5900  156.2164 C.ar    1  UNL1        0.0016
      6 C         142.3899  137.3341  157.0234 C.ar    1  UNL1        0.0016
      7 C         142.6445  137.3584  158.5014 C.ar    1  UNL1        0.0188
      8 C         143.0455  138.6385  159.1725 C.ar    1  UNL1        0.0801
      9 N         143.3602  138.9667  160.6019 N.ar    1  UNL1       -0.2956
     10 N         144.0796  141.1786  161.9191 N.pl3   1  UNL1       -0.3058
     11 H         145.0287  141.3027  162.1494 H       1  UNL1        0.1495
     12 N         140.8769  142.8711  164.5890 N.3     1  UNL1       -0.2723
     13 C         140.5134  141.9024  163.5030 C.3     1  UNL1        0.0738
     14 C         141.5810  141.3382  162.6130 C.3     1  UNL1        0.0369
     15 C         143.0120  141.7428  162.8090 C.3     1  UNL1        0.0745
     16 C         143.3755  142.7115  163.8951 C.3     1  UNL1        0.0369
     17 C         142.3079  143.2757  164.7850 C.3     1  UNL1        0.0738
     18 C         139.8093  143.4353  165.4790 C.3     1  UNL1        0.0768
     19 C         140.0014  143.4461  166.9666 C.3     1  UNL1        0.0437
     20 C         141.9896  139.9611  169.0040 C.ar    1  UNL1        0.0684
     21 C         142.7063  141.2742  168.8943 C.ar    1  UNL1        0.0100
     22 C         142.0436  142.4359  168.2152 C.ar    1  UNL1       -0.0035
     23 C         140.6641  142.2845  167.6457 C.ar    1  UNL1       -0.0207
     24 C         139.9475  140.9713  167.7553 C.ar    1  UNL1       -0.0035
     25 C         140.6102  139.8096  168.4345 C.ar    1  UNL1        0.0100
     26 N         143.3151  137.6377  170.3623 N.1     1  UNL1       -0.1908
     27 C         142.6523  138.7994  169.6831 C.1     1  UNL1        0.1004
     28 C         143.3379  138.0050  161.7528 C.3     1  UNL1        0.1355
     29 C         142.1984  138.0283  162.7278 C.ar    1  UNL1        0.0027
     30 C         142.4537  138.3405  164.1726 C.ar    1  UNL1       -0.0016
     31 C         141.3141  138.3638  165.1477 C.ar    1  UNL1        0.0123
     32 C         139.9191  138.0750  164.6779 C.ar    1  UNL1        0.0958
     33 C         139.6638  137.7629  163.2332 C.ar    1  UNL1        0.1494
     34 F         138.2688  137.4741  162.7635 F       1  UNL1       -0.2035
     35 C         140.8034  137.7395  162.2581 C.ar    1  UNL1        0.0279
     36 C         138.7796  138.0983  165.6530 C.1     1  UNL1        0.1027
     37 N         137.6400  138.1216  166.6281 N.1     1  UNL1       -0.1908
@<TRIPOS>BOND
     1    26    27    3
     2    27    20    1
     3    20    21   ar
     4    21    22   ar
     5    22    23   ar
     6    23    19    1
     7    19    18    1
     8    18    12    1
     9    12    13    1
    10    13    14    1
    11    14    15    1
    12    15    10    1
    13    10     1    1
    14     1     2   ar
    15     2     3   ar
    16     3     4   ar
    17     4     5   ar
    18     5     6   ar
    19     6     7   ar
    20     7     8   ar
    21     8     9   ar
    22     9    28    1
    23    28    29    1
    24    29    30   ar
    25    30    31   ar
    26    31    32   ar
    27    32    36    1
    28    36    37    3
    29    32    33   ar
    30    33    34    1
    31    33    35   ar
    32    15    16    1
    33    16    17    1
    34    23    24   ar
    35    24    25   ar
    36    25    20   ar
    37    17    12    1
    38     9     1   ar
    39    35    29   ar
    40     8     3   ar
    41    10    11    1
@<TRIPOS>MOLECULE
*****
 37 41 0 0 0
SMALL
GASTEIGER

@<TRIPOS>ATOM
      1 C         139.2698  140.5934  166.4256 C.ar    1  UNL1        0.1981
      2 N         139.9323  139.5091  167.2226 N.ar    1  UNL1       -0.2138
      3 C         141.0108  140.1380  168.0542 C.ar    1  UNL1        0.0999
      4 C         141.9897  139.5597  169.0326 C.ar    1  UNL1        0.0207
      5 C         142.9725  140.4544  169.7279 C.ar    1  UNL1        0.0016
      6 C         142.9764  141.9274  169.4448 C.ar    1  UNL1        0.0016
      7 C         141.9975  142.5058  168.4664 C.ar    1  UNL1        0.0188
      8 C         141.0147  141.6111  167.7711 C.ar    1  UNL1        0.0801
      9 N         139.9387  141.8925  166.7646 N.ar    1  UNL1       -0.2956
     10 N         138.1371  140.4108  165.4593 N.pl3   1  UNL1       -0.3058
     11 H         137.2153  140.6166  165.7368 H       1  UNL1        0.1495
     12 N         138.9529  138.9220  161.2918 N.3     1  UNL1       -0.2723
     13 C         139.0776  137.9887  162.4594 C.3     1  UNL1        0.0738
     14 C         138.8057  138.4850  163.8486 C.3     1  UNL1        0.0369
     15 C         138.4091  139.9145  164.0702 C.3     1  UNL1        0.0745
     16 C         138.2844  140.8478  162.9025 C.3     1  UNL1        0.0369
     17 C         138.5563  140.3516  161.5133 C.3     1  UNL1        0.0738
     18 C         139.2249  138.4258  159.9026 C.3     1  UNL1        0.0768
     19 C         140.6256  138.4285  159.3659 C.3     1  UNL1        0.0437
     20 C         143.9211  140.4263  161.6893 C.ar    1  UNL1        0.0684
     21 C         143.5376  139.0096  161.9989 C.ar    1  UNL1        0.0100
     22 C         142.4391  138.3437  161.2245 C.ar    1  UNL1       -0.0035
     23 C         141.7241  139.0945  160.1404 C.ar    1  UNL1       -0.0207
     24 C         142.1076  140.5112  159.8308 C.ar    1  UNL1       -0.0035
     25 C         143.2062  141.1771  160.6053 C.ar    1  UNL1        0.0100
     26 N         146.1182  141.7582  163.2382 N.1     1  UNL1       -0.1908
     27 C         145.0196  141.0922  162.4637 C.1     1  UNL1        0.1004
     28 C         139.5925  143.2370  166.1968 C.3     1  UNL1        0.1355
     29 C         140.0464  143.6076  164.8161 C.ar    1  UNL1        0.0027
     30 C         141.1421  142.8273  164.1521 C.ar    1  UNL1       -0.0016
     31 C         141.5961  143.1978  162.7713 C.ar    1  UNL1        0.0123
     32 C         140.9544  144.3487  162.0545 C.ar    1  UNL1        0.0958
     33 C         139.8589  145.1290  162.7184 C.ar    1  UNL1        0.1494
     34 F         139.2173  146.2798  162.0015 F       1  UNL1       -0.2035
     35 C         139.4048  144.7584  164.0992 C.ar    1  UNL1        0.0279
     36 C         141.4085  144.7193  160.6737 C.1     1  UNL1        0.1027
     37 N         141.8625  145.0898  159.2929 N.1     1  UNL1       -0.1908
@<TRIPOS>BOND
     1    26    27    3
     2    27    20    1
     3    20    21   ar
     4    21    22   ar
     5    22    23   ar
     6    23    19    1
     7    19    18    1
     8    18    12    1
     9    12    13    1
    10    13    14    1
    11    14    15    1
    12    15    10    1
    13    10     1    1
    14     1     2   ar
    15     2     3   ar
    16     3     4   ar
    17     4     5   ar
    18     5     6   ar
    19     6     7   ar
    20     7     8   ar
    21     8     9   ar
    22     9    28    1
    23    28    29    1
    24    29    30   ar
    25    30    31   ar
    26    31    32   ar
    27    32    36    1
    28    36    37    3
    29    32    33   ar
    30    33    34    1
    31    33    35   ar
    32    15    16    1
    33    16    17    1
    34    23    24   ar
    35    24    25   ar
    36    25    20   ar
    37    17    12    1
    38     9     1   ar
    39    35    29   ar
    40     8     3   ar
    41    10    11    1
@<TRIPOS>MOLECULE
*****
 37 41 0 0 0
SMALL
GASTEIGER

@<TRIPOS>ATOM
      1 C         144.0130  140.2502  160.6223 C.ar    1  UNL1        0.1981
      2 N         143.8448  139.3534  159.4317 N.ar    1  UNL1       -0.2138
      3 C         143.7892  140.2160  158.2058 C.ar    1  UNL1        0.0999
      4 C         143.6339  139.8842  156.7513 C.ar    1  UNL1        0.0207
      5 C         143.6125  140.9823  155.7297 C.ar    1  UNL1        0.0016
      6 C         143.7464  142.4122  156.1627 C.ar    1  UNL1        0.0016
      7 C         143.9017  142.7440  157.6172 C.ar    1  UNL1        0.0188
      8 C         143.9230  141.6459  158.6388 C.ar    1  UNL1        0.0801
      9 N         144.0614  141.6670  160.1323 N.ar    1  UNL1       -0.2956
     10 N         144.1150  139.8077  162.0520 N.pl3   1  UNL1       -0.3058
     11 H         144.9951  139.7588  162.4905 H       1  UNL1        0.1495
     12 N         140.3983  138.7042  164.3363 N.3     1  UNL1       -0.2723
     13 C         141.7385  138.2213  164.8061 C.3     1  UNL1        0.0738
     14 C         142.9774  138.5892  164.0447 C.3     1  UNL1        0.0369
     15 C         142.8761  139.4399  162.8134 C.3     1  UNL1        0.0745
     16 C         141.5359  139.9227  162.3436 C.3     1  UNL1        0.0369
     17 C         140.2970  139.5549  163.1050 C.3     1  UNL1        0.0738
     18 C         139.1593  138.3363  165.0978 C.3     1  UNL1        0.0768
     19 C         138.4437  139.3732  165.9118 C.3     1  UNL1        0.0437
     20 C         140.7427  141.9484  168.7985 C.ar    1  UNL1        0.0684
     21 C         140.6789  142.3218  167.3471 C.ar    1  UNL1        0.0100
     22 C         139.9125  141.4634  166.3849 C.ar    1  UNL1       -0.0035
     23 C         139.2100  140.2316  166.8740 C.ar    1  UNL1       -0.0207
     24 C         139.2739  139.8582  168.3254 C.ar    1  UNL1       -0.0035
     25 C         140.0402  140.7167  169.2876 C.ar    1  UNL1        0.0100
     26 N         142.2754  143.6652  170.7230 N.1     1  UNL1       -0.1908
     27 C         141.5090  142.8068  169.7607 C.1     1  UNL1        0.1004
     28 C         144.2202  142.8902  160.9858 C.3     1  UNL1        0.1355
     29 C         143.1030  143.3266  161.8864 C.ar    1  UNL1        0.0027
     30 C         143.2349  143.1745  163.3729 C.ar    1  UNL1       -0.0016
     31 C         142.1177  143.6109  164.2736 C.ar    1  UNL1        0.0123
     32 C         140.8684  144.1994  163.6879 C.ar    1  UNL1        0.0958
     33 C         140.7365  144.3516  162.2015 C.ar    1  UNL1        0.1494
     34 F         139.4873  144.9402  161.6158 F       1  UNL1       -0.2035
     35 C         141.8538  143.9152  161.3008 C.ar    1  UNL1        0.0279
     36 C         139.7512  144.6358  164.5886 C.1     1  UNL1        0.1027
     37 N         138.6340  145.0722  165.4893 N.1     1  UNL1       -0.1908
@<TRIPOS>BOND
     1    26    27    3
     2    27    20    1
     3    20    21   ar
     4    21    22   ar
     5    22    23   ar
     6    23    19    1
     7    19    18    1
     8    18    12    1
     9    12    13    1
    10    13    14    1
    11    14    15    1
    12    15    10    1
    13    10     1    1
    14     1     2   ar
    15     2     3   ar
    16     3     4   ar
    17     4     5   ar
    18     5     6   ar
    19     6     7   ar
    20     7     8   ar
    21     8     9   ar
    22     9    28    1
    23    28    29    1
    24    29    30   ar
    25    30    31   ar
    26    31    32   ar
    27    32    36    1
    28    36    37    3
    29    32    33   ar
    30    33    34    1
    31    33    35   ar
    32    15    16    1
    33    16    17    1
    34    23    24   ar
    35    24    25   ar
    36    25    20   ar
    37    17    12    1
    38     9     1   ar
    39    35    29   ar
    40     8     3   ar
    41    10    11    1
@<TRIPOS>MOLECULE
*****
 37 41 0 0 0
SMALL
GASTEIGER

@<TRIPOS>ATOM
      1 C         138.9080  143.0932  159.9235 C.ar    1  UNL1        0.1981
      2 N         138.9429  142.3973  158.5952 N.ar    1  UNL1       -0.2138
      3 C         140.0577  142.9942  157.7883 C.ar    1  UNL1        0.0999
      4 C         140.5616  142.7057  156.4053 C.ar    1  UNL1        0.0207
      5 C         141.7197  143.4820  155.8519 C.ar    1  UNL1        0.0016
      6 C         142.3738  144.5468  156.6816 C.ar    1  UNL1        0.0016
      7 C         141.8698  144.8353  158.0646 C.ar    1  UNL1        0.0188
      8 C         140.7117  144.0590  158.6179 C.ar    1  UNL1        0.0801
      9 N         140.0012  144.1202  159.9376 N.ar    1  UNL1       -0.2956
     10 N         137.9484  142.8116  161.0415 N.pl3   1  UNL1       -0.3058
     11 H         137.1875  143.4156  161.2010 H       1  UNL1        0.1495
     12 N         138.5474  139.2059  163.6664 N.3     1  UNL1       -0.2723
     13 C         138.7693  139.1015  162.1866 C.3     1  UNL1        0.0738
     14 C         138.5696  140.3034  161.3116 C.3     1  UNL1        0.0369
     15 C         138.1481  141.6097  161.9164 C.3     1  UNL1        0.0745
     16 C         137.9262  141.7141  163.3963 C.3     1  UNL1        0.0369
     17 C         138.1259  140.5122  164.2712 C.3     1  UNL1        0.0738
     18 C         138.7471  138.0040  164.5414 C.3     1  UNL1        0.0768
     19 C         140.1156  137.4107  164.6999 C.3     1  UNL1        0.0437
     20 C         143.7635  139.9348  163.9436 C.ar    1  UNL1        0.0684
     21 C         143.2988  138.9580  162.9044 C.ar    1  UNL1        0.0100
     22 C         142.0828  138.1166  163.1565 C.ar    1  UNL1       -0.0035
     23 C         141.3316  138.2521  164.4478 C.ar    1  UNL1       -0.0207
     24 C         141.7963  139.2289  165.4870 C.ar    1  UNL1       -0.0035
     25 C         143.0123  140.0703  165.2348 C.ar    1  UNL1        0.0100
     26 N         146.1954  141.6176  163.4393 N.1     1  UNL1       -0.1908
     27 C         144.9794  140.7762  163.6915 C.1     1  UNL1        0.1004
     28 C         140.3268  145.0459  161.0721 C.3     1  UNL1        0.1355
     29 C         140.3597  144.5259  162.4786 C.ar    1  UNL1        0.0027
     30 C         141.3195  143.4355  162.8528 C.ar    1  UNL1       -0.0016
     31 C         141.3525  142.9154  164.2594 C.ar    1  UNL1        0.0123
     32 C         140.4257  143.4857  165.2918 C.ar    1  UNL1        0.0958
     33 C         139.4659  144.5760  164.9176 C.ar    1  UNL1        0.1494
     34 F         138.5392  145.1463  165.9500 F       1  UNL1       -0.2035
     35 C         139.4329  145.0961  163.5110 C.ar    1  UNL1        0.0279
     36 C         140.4587  142.9656  166.6983 C.1     1  UNL1        0.1027
     37 N         140.4917  142.4455  168.1049 N.1     1  UNL1       -0.1908
@<TRIPOS>BOND
     1    26    27    3
     2    27    20    1
     3    20    21   ar
     4    21    22   ar
     5    22    23   ar
     6    23    19    1
     7    19    18    1
     8    18    12    1
     9    12    13    1
    10    13    14    1
    11    14    15    1
    12    15    10    1
    13    10     1    1
    14     1     2   ar
    15     2     3   ar
    16     3     4   ar
    17     4     5   ar
    18     5     6   ar
    19     6     7   ar
    20     7     8   ar
    21     8     9   ar
    22     9    28    1
    23    28    29    1
    24    29    30   ar
    25    30    31   ar
    26    31    32   ar
    27    32    36    1
    28    36    37    3
    29    32    33   ar
    30    33    34    1
    31    33    35   ar
    32    15    16    1
    33    16    17    1
    34    23    24   ar
    35    24    25   ar
    36    25    20   ar
    37    17    12    1
    38     9     1   ar
    39    35    29   ar
    40     8     3   ar
    41    10    11    1
@<TRIPOS>MOLECULE
*****
 37 41 0 0 0
SMALL
GASTEIGER

@<TRIPOS>ATOM
      1 C         142.5996  139.1167  166.6418 C.ar    1  UNL1        0.1981
      2 N         143.0433  139.2213  168.0708 N.ar    1  UNL1       -0.2138
      3 C         141.8740  139.6879  168.8863 C.ar    1  UNL1        0.0999
      4 C         141.7207  139.9692  170.3517 C.ar    1  UNL1        0.0207
      5 C         140.4010  140.4343  170.8920 C.ar    1  UNL1        0.0016
      6 C         139.2346  140.6181  169.9669 C.ar    1  UNL1        0.0016
      7 C         139.3879  140.3369  168.5015 C.ar    1  UNL1        0.0188
      8 C         140.7076  139.8718  167.9612 C.ar    1  UNL1        0.0801
      9 N         141.1561  139.5188  166.5741 N.ar    1  UNL1       -0.2956
     10 N         143.4501  138.6858  165.4838 N.pl3   1  UNL1       -0.3058
     11 H         143.8091  137.7697  165.4507 H       1  UNL1        0.1495
     12 N         144.3607  141.5804  162.1608 N.3     1  UNL1       -0.2723
     13 C         144.3112  142.0605  163.5810 C.3     1  UNL1        0.0738
     14 C         144.0077  141.0956  164.6888 C.3     1  UNL1        0.0369
     15 C         143.7537  139.6507  164.3762 C.3     1  UNL1        0.0745
     16 C         143.8032  139.1707  162.9558 C.3     1  UNL1        0.0369
     17 C         144.1067  140.1355  161.8482 C.3     1  UNL1        0.0738
     18 C         144.6643  142.5453  161.0531 C.3     1  UNL1        0.0768
     19 C         144.1600  142.2776  159.6661 C.3     1  UNL1        0.0437
     20 C         141.2685  145.1328  157.7330 C.ar    1  UNL1        0.0684
     21 C         142.2361  144.3584  156.8879 C.ar    1  UNL1        0.0100
     22 C         143.1999  143.4067  157.5322 C.ar    1  UNL1       -0.0035
     23 C         143.1962  143.2293  159.0218 C.ar    1  UNL1       -0.0207
     24 C         142.2287  144.0037  159.8669 C.ar    1  UNL1       -0.0035
     25 C         141.2648  144.9555  159.2225 C.ar    1  UNL1        0.0100
     26 N         139.3409  147.0364  156.4443 N.1     1  UNL1       -0.1908
     27 C         140.3047  146.0846  157.0887 C.1     1  UNL1        0.1004
     28 C         140.3096  139.5605  165.3364 C.3     1  UNL1        0.1355
     29 C         140.0783  140.8630  164.6295 C.ar    1  UNL1        0.0027
     30 C         140.5904  141.0599  163.2334 C.ar    1  UNL1       -0.0016
     31 C         140.3592  142.3624  162.5263 C.ar    1  UNL1        0.0123
     32 C         139.6157  143.4681  163.2154 C.ar    1  UNL1        0.0958
     33 C         139.1036  143.2712  164.6114 C.ar    1  UNL1        0.1494
     34 F         138.3602  144.3769  165.3004 F       1  UNL1       -0.2035
     35 C         139.3349  141.9687  165.3185 C.ar    1  UNL1        0.0279
     36 C         139.3844  144.7706  162.5084 C.1     1  UNL1        0.1027
     37 N         139.1532  146.0732  161.8013 N.1     1  UNL1       -0.1908
@<TRIPOS>BOND
     1    26    27    3
     2    27    20    1
     3    20    21   ar
     4    21    22   ar
     5    22    23   ar
     6    23    19    1
     7    19    18    1
     8    18    12    1
     9    12    13    1
    10    13    14    1
    11    14    15    1
    12    15    10    1
    13    10     1    1
    14     1     2   ar
    15     2     3   ar
    16     3     4   ar
    17     4     5   ar
    18     5     6   ar
    19     6     7   ar
    20     7     8   ar
    21     8     9   ar
    22     9    28    1
    23    28    29    1
    24    29    30   ar
    25    30    31   ar
    26    31    32   ar
    27    32    36    1
    28    36    37    3
    29    32    33   ar
    30    33    34    1
    31    33    35   ar
    32    15    16    1
    33    16    17    1
    34    23    24   ar
    35    24    25   ar
    36    25    20   ar
    37    17    12    1
    38     9     1   ar
    39    35    29   ar
    40     8     3   ar
    41    10    11    1
@<TRIPOS>MOLECULE
*****
 37 41 0 0 0
SMALL
GASTEIGER

@<TRIPOS>ATOM
      1 C         141.9393  139.4958  166.7966 C.ar    1  UNL1        0.1981
      2 N         143.0180  140.2863  167.4758 N.ar    1  UNL1       -0.2138
      3 C         142.3602  141.3149  168.3472 C.ar    1  UNL1        0.0999
      4 C         142.9218  142.3725  169.2506 C.ar    1  UNL1        0.0207
      5 C         141.9981  143.2752  170.0133 C.ar    1  UNL1        0.0016
      6 C         140.5127  143.1203  169.8727 C.ar    1  UNL1        0.0016
      7 C         139.9511  142.0627  168.9693 C.ar    1  UNL1        0.0188
      8 C         140.8749  141.1600  168.2066 C.ar    1  UNL1        0.0801
      9 N         140.6148  140.0357  167.2483 N.ar    1  UNL1       -0.2956
     10 N         142.1484  138.3640  165.8347 N.pl3   1  UNL1       -0.3058
     11 H         141.9468  137.4405  166.1099 H       1  UNL1        0.1495
     12 N         143.6973  139.1898  161.6912 N.3     1  UNL1       -0.2723
     13 C         142.6173  138.1697  161.8986 C.3     1  UNL1        0.0738
     14 C         142.1010  137.8944  163.2799 C.3     1  UNL1        0.0369
     15 C         142.6647  138.6392  164.4535 C.3     1  UNL1        0.0745
     16 C         143.7447  139.6593  164.2460 C.3     1  UNL1        0.0369
     17 C         144.2610  139.9346  162.8648 C.3     1  UNL1        0.0738
     18 C         144.2136  139.4651  160.3099 C.3     1  UNL1        0.0768
     19 C         143.3965  140.2810  159.3526 C.3     1  UNL1        0.0437
     20 C         140.7803  143.6031  160.8919 C.ar    1  UNL1        0.0684
     21 C         142.2729  143.7494  160.9204 C.ar    1  UNL1        0.0100
     22 C         143.1450  142.6420  160.4073 C.ar    1  UNL1       -0.0035
     23 C         142.5244  141.3883  159.8657 C.ar    1  UNL1       -0.0207
     24 C         141.0319  141.2421  159.8371 C.ar    1  UNL1       -0.0035
     25 C         140.1598  142.3495  160.3502 C.ar    1  UNL1        0.0100
     26 N         139.0362  145.8179  161.9180 N.1     1  UNL1       -0.1908
     27 C         139.9083  144.7104  161.4049 C.1     1  UNL1        0.1004
     28 C         139.2667  139.5387  166.8173 C.3     1  UNL1        0.1355
     29 C         138.8666  139.6121  165.3736 C.ar    1  UNL1        0.0027
     30 C         138.8607  138.3698  164.5329 C.ar    1  UNL1       -0.0016
     31 C         138.4606  138.4431  163.0891 C.ar    1  UNL1        0.0123
     32 C         138.0664  139.7588  162.4860 C.ar    1  UNL1        0.0958
     33 C         138.0724  141.0010  163.3266 C.ar    1  UNL1        0.1494
     34 F         137.6782  142.3166  162.7235 F       1  UNL1       -0.2035
     35 C         138.4725  140.9277  164.7704 C.ar    1  UNL1        0.0279
     36 C         137.6663  139.8321  161.0422 C.1     1  UNL1        0.1027
     37 N         137.2662  139.9054  159.5984 N.1     1  UNL1       -0.1908
@<TRIPOS>BOND
     1    26    27    3
     2    27    20    1
     3    20    21   ar
     4    21    22   ar
     5    22    23   ar
     6    23    19    1
     7    19    18    1
     8    18    12    1
     9    12    13    1
    10    13    14    1
    11    14    15    1
    12    15    10    1
    13    10     1    1
    14     1     2   ar
    15     2     3   ar
    16     3     4   ar
    17     4     5   ar
    18     5     6   ar
    19     6     7   ar
    20     7     8   ar
    21     8     9   ar
    22     9    28    1
    23    28    29    1
    24    29    30   ar
    25    30    31   ar
    26    31    32   ar
    27    32    36    1
    28    36    37    3
    29    32    33   ar
    30    33    34    1
    31    33    35   ar
    32    15    16    1
    33    16    17    1
    34    23    24   ar
    35    24    25   ar
    36    25    20   ar
    37    17    12    1
    38     9     1   ar
    39    35    29   ar
    40     8     3   ar
    41    10    11    1
@<TRIPOS>MOLECULE
*****
 37 41 0 0 0
SMALL
GASTEIGER

@<TRIPOS>ATOM
      1 C         141.2962  145.0651  159.9434 C.ar    1  UNL1        0.1981
      2 N         142.0136  145.5873  158.7340 N.ar    1  UNL1       -0.2138
      3 C         141.2863  145.0985  157.5165 C.ar    1  UNL1        0.0999
      4 C         141.5358  145.2975  156.0509 C.ar    1  UNL1        0.0207
      5 C         140.6185  144.6722  155.0423 C.ar    1  UNL1        0.0016
      6 C         139.4517  143.8478  155.4992 C.ar    1  UNL1        0.0016
      7 C         139.2021  143.6488  156.9649 C.ar    1  UNL1        0.0188
      8 C         140.1194  144.2741  157.9735 C.ar    1  UNL1        0.0801
      9 N         140.1256  144.2535  159.4733 N.ar    1  UNL1       -0.2956
     10 N         141.6817  145.3113  161.3719 N.pl3   1  UNL1       -0.3058
     11 H         141.2758  146.0573  161.8698 H       1  UNL1        0.1495
     12 N         144.6941  142.6399  163.3818 N.3     1  UNL1       -0.2723
     13 C         144.3862  142.4599  161.9249 C.3     1  UNL1        0.0738
     14 C         143.3821  143.3504  161.2548 C.3     1  UNL1        0.0369
     15 C         142.6858  144.4208  162.0418 C.3     1  UNL1        0.0745
     16 C         142.9937  144.6008  163.4989 C.3     1  UNL1        0.0369
     17 C         143.9978  143.7104  164.1688 C.3     1  UNL1        0.0738
     18 C         145.6982  141.7495  164.0518 C.3     1  UNL1        0.0768
     19 C         145.4980  140.2629  164.0555 C.3     1  UNL1        0.0437
     20 C         141.3947  138.5471  164.7403 C.ar    1  UNL1        0.0684
     21 C         142.1033  138.3010  163.4413 C.ar    1  UNL1        0.0100
     22 C         143.4710  138.8730  163.2130 C.ar    1  UNL1       -0.0035
     23 C         144.1302  139.6910  164.2837 C.ar    1  UNL1       -0.0207
     24 C         143.4216  139.9371  165.5827 C.ar    1  UNL1       -0.0035
     25 C         142.0538  139.3651  165.8110 C.ar    1  UNL1        0.0100
     26 N         138.6591  137.4033  165.1969 N.1     1  UNL1       -0.1908
     27 C         140.0269  137.9752  164.9686 C.1     1  UNL1        0.1004
     28 C         139.1349  143.5455  160.3494 C.3     1  UNL1        0.1355
     29 C         139.4233  143.3597  161.8096 C.ar    1  UNL1        0.0027
     30 C         140.1478  142.1337  162.2809 C.ar    1  UNL1       -0.0016
     31 C         140.4362  141.9478  163.7412 C.ar    1  UNL1        0.0123
     32 C         140.0001  142.9880  164.7301 C.ar    1  UNL1        0.0958
     33 C         139.2756  144.2139  164.2587 C.ar    1  UNL1        0.1494
     34 F         138.8396  145.2541  165.2477 F       1  UNL1       -0.2035
     35 C         138.9872  144.3998  162.7985 C.ar    1  UNL1        0.0279
     36 C         140.2885  142.8021  166.1903 C.1     1  UNL1        0.1027
     37 N         140.5769  142.6163  167.6505 N.1     1  UNL1       -0.1908
@<TRIPOS>BOND
     1    26    27    3
     2    27    20    1
     3    20    21   ar
     4    21    22   ar
     5    22    23   ar
     6    23    19    1
     7    19    18    1
     8    18    12    1
     9    12    13    1
    10    13    14    1
    11    14    15    1
    12    15    10    1
    13    10     1    1
    14     1     2   ar
    15     2     3   ar
    16     3     4   ar
    17     4     5   ar
    18     5     6   ar
    19     6     7   ar
    20     7     8   ar
    21     8     9   ar
    22     9    28    1
    23    28    29    1
    24    29    30   ar
    25    30    31   ar
    26    31    32   ar
    27    32    36    1
    28    36    37    3
    29    32    33   ar
    30    33    34    1
    31    33    35   ar
    32    15    16    1
    33    16    17    1
    34    23    24   ar
    35    24    25   ar
    36    25    20   ar
    37    17    12    1
    38     9     1   ar
    39    35    29   ar
    40     8     3   ar
    41    10    11    1
