@<TRIPOS>MOLECULE
*****
 32 35 0 0 0
SMALL
GASTEIGER

@<TRIPOS>ATOM
      1 N         141.3554  137.7354  156.4066 N.am    1  UNL1       -0.2113
      2 C         139.9346  137.6416  156.8782 C.2     1  UNL1        0.2550
      3 O         138.7619  137.1892  156.0596 O.2     1  UNL1       -0.2725
      4 C         139.8923  138.0796  158.3123 C.3     1  UNL1        0.2059
      5 N         141.2870  138.4441  158.7269 N.am    1  UNL1       -0.1551
      6 C         142.1912  138.2314  157.5491 C.2     1  UNL1        0.3324
      7 O         143.6714  138.4723  157.5192 O.2     1  UNL1       -0.2501
      8 N         141.7042  138.9352  160.0814 N.2     1  UNL1       -0.1692
      9 C         141.9198  137.9586  161.1995 C.2     1  UNL1        0.1553
     10 C         142.3370  138.4496  162.5540 C.ar    1  UNL1        0.1660
     11 C         143.7143  138.8984  162.9434 C.ar    1  UNL1        0.0423
     12 C         143.6788  139.3043  164.3870 C.ar    1  UNL1        0.0407
     13 C         142.2795  139.1063  164.8899 C.ar    1  UNL1        0.1454
     14 O         141.4502  138.5781  163.7570 O.2     1  UNL1       -0.4519
     15 C         141.7946  139.3872  166.2812 C.ar    1  UNL1        0.0346
     16 C         140.3596  139.7560  166.5153 C.ar    1  UNL1        0.0039
     17 C         139.8748  140.0369  167.9067 C.ar    1  UNL1        0.0115
     18 C         140.8249  139.9489  169.0641 C.ar    1  UNL1        0.0577
     19 CL        140.3399  140.2298  170.4555 Cl      1  UNL1       -0.0822
     20 C         142.2598  139.5801  168.8301 C.ar    1  UNL1        0.0115
     21 C         142.7448  139.2992  167.4387 C.ar    1  UNL1        0.0039
     22 C         141.8530  137.3933  155.0335 C.3     1  UNL1        0.1026
     23 C         142.3964  136.0237  154.7524 C.3     1  UNL1        0.0235
     24 C         143.5651  135.5050  155.5366 C.3     1  UNL1        0.0191
     25 C         143.3435  134.8464  156.8659 C.3     1  UNL1        0.0722
     26 C         144.3323  128.9626  157.5010 C.3     1  UNL1        0.0897
     27 N         144.0851  130.4336  157.3422 N.3     1  UNL1       -0.2691
     28 C         142.9201  130.9148  156.5292 C.3     1  UNL1        0.0897
     29 C         142.6729  132.3858  156.3704 C.3     1  UNL1        0.0897
     30 N         143.5907  133.3755  157.0247 N.3     1  UNL1       -0.2703
     31 C         144.7557  132.8942  157.8378 C.3     1  UNL1        0.0897
     32 C         145.0029  131.4233  157.9965 C.3     1  UNL1        0.0897
@<TRIPOS>BOND
     1    26    27    1
     2    27    28    1
     3    28    29    1
     4    29    30    1
     5    30    25    1
     6    25    24    1
     7    24    23    1
     8    23    22    1
     9    22     1    1
    10     1     2   am
    11     2     3    2
    12     2     4    1
    13     4     5    1
    14     5     8    1
    15     8     9    2
    16     9    10    1
    17    10    11   ar
    18    11    12   ar
    19    12    13   ar
    20    13    15    1
    21    15    16   ar
    22    16    17   ar
    23    17    18   ar
    24    18    19    1
    25    18    20   ar
    26    20    21   ar
    27    13    14   ar
    28     5     6   am
    29     6     7    2
    30    30    31    1
    31    31    32    1
    32    32    27    1
    33     6     1   am
    34    14    10   ar
    35    21    15   ar
@<TRIPOS>MOLECULE
*****
 32 35 0 0 0
SMALL
GASTEIGER

@<TRIPOS>ATOM
      1 N         141.1254  138.4646  157.2770 N.am    1  UNL1       -0.2113
      2 C         142.5524  138.2346  157.6777 C.2     1  UNL1        0.2550
      3 O         143.6767  137.8587  156.7586 O.2     1  UNL1       -0.2725
      4 C         142.6579  138.4464  159.1590 C.3     1  UNL1        0.2059
      5 N         141.2960  138.8074  159.6737 N.am    1  UNL1       -0.1551
      6 C         140.3489  138.8187  158.5106 C.2     1  UNL1        0.3324
      7 O         138.8827  139.1294  158.5705 O.2     1  UNL1       -0.2501
      8 N         140.9432  139.1048  161.1009 N.2     1  UNL1       -0.1692
      9 C         140.1362  138.1206  161.8947 C.2     1  UNL1        0.1553
     10 C         139.7833  138.4181  163.3219 C.ar    1  UNL1        0.1660
     11 C         138.8988  137.5867  164.2031 C.ar    1  UNL1        0.0423
     12 C         138.8218  138.2539  165.5444 C.ar    1  UNL1        0.0407
     13 C         139.6588  139.4977  165.4921 C.ar    1  UNL1        0.1454
     14 O         140.2530  139.5991  164.1185 O.2     1  UNL1       -0.4519
     15 C         139.8652  140.4694  166.6160 C.ar    1  UNL1        0.0346
     16 C         139.6689  140.0267  168.0357 C.ar    1  UNL1        0.0039
     17 C         139.8754  140.9985  169.1596 C.ar    1  UNL1        0.0115
     18 C         140.2781  142.4128  168.8638 C.ar    1  UNL1        0.0577
     19 CL        140.4845  143.3845  169.9878 Cl      1  UNL1       -0.0822
     20 C         140.4744  142.8554  167.4441 C.ar    1  UNL1        0.0115
     21 C         140.2679  141.8838  166.3202 C.ar    1  UNL1        0.0039
     22 C         140.5720  138.3592  155.8868 C.3     1  UNL1        0.1026
     23 C         139.6627  137.2222  155.5257 C.3     1  UNL1        0.0235
     24 C         140.2059  136.0308  154.7938 C.3     1  UNL1        0.0191
     25 C         141.6634  135.6904  154.8925 C.3     1  UNL1        0.0722
     26 C         143.3723  130.5158  157.4032 C.3     1  UNL1        0.0897
     27 N         142.9451  131.8095  156.7755 N.3     1  UNL1       -0.2691
     28 C         141.9459  131.8063  155.6568 C.3     1  UNL1        0.0897
     29 C         141.5187  133.1000  155.0291 C.3     1  UNL1        0.0897
     30 N         142.0906  134.3968  155.5202 N.3     1  UNL1       -0.2703
     31 C         143.0898  134.3999  156.6389 C.3     1  UNL1        0.0897
     32 C         143.5170  133.1063  157.2666 C.3     1  UNL1        0.0897
@<TRIPOS>BOND
     1    26    27    1
     2    27    28    1
     3    28    29    1
     4    29    30    1
     5    30    25    1
     6    25    24    1
     7    24    23    1
     8    23    22    1
     9    22     1    1
    10     1     2   am
    11     2     3    2
    12     2     4    1
    13     4     5    1
    14     5     8    1
    15     8     9    2
    16     9    10    1
    17    10    11   ar
    18    11    12   ar
    19    12    13   ar
    20    13    15    1
    21    15    16   ar
    22    16    17   ar
    23    17    18   ar
    24    18    19    1
    25    18    20   ar
    26    20    21   ar
    27    13    14   ar
    28     5     6   am
    29     6     7    2
    30    30    31    1
    31    31    32    1
    32    32    27    1
    33     6     1   am
    34    14    10   ar
    35    21    15   ar
@<TRIPOS>MOLECULE
*****
 32 35 0 0 0
SMALL
GASTEIGER

@<TRIPOS>ATOM
      1 N         144.2849  142.1572  162.1831 N.am    1  UNL1       -0.2113
      2 C         144.3578  141.1023  163.2470 C.2     1  UNL1        0.2550
      3 O         144.4955  141.3446  164.7209 O.2     1  UNL1       -0.2725
      4 C         144.2690  139.7626  162.5783 C.3     1  UNL1        0.2059
      5 N         144.1412  139.9895  161.1011 N.am    1  UNL1       -0.1551
      6 C         144.1509  141.4695  160.8569 C.2     1  UNL1        0.3324
      7 O         144.0453  142.1433  159.5209 O.2     1  UNL1       -0.2501
      8 N         144.0240  138.9236  160.0522 N.2     1  UNL1       -0.1692
      9 C         142.7183  138.7059  159.3468 C.2     1  UNL1        0.1553
     10 C         142.6012  137.6400  158.2979 C.ar    1  UNL1        0.1660
     11 C         141.7379  137.6998  157.0727 C.ar    1  UNL1        0.0423
     12 C         141.9299  136.4239  156.3076 C.ar    1  UNL1        0.0407
     13 C         142.9119  135.5756  157.0600 C.ar    1  UNL1        0.1454
     14 O         143.3268  136.3272  158.2900 O.2     1  UNL1       -0.4519
     15 C         143.3944  134.2147  156.6537 C.ar    1  UNL1        0.0346
     16 C         144.3440  133.4609  157.5369 C.ar    1  UNL1        0.0039
     17 C         144.8263  132.1000  157.1305 C.ar    1  UNL1        0.0115
     18 C         144.3592  131.4928  155.8409 C.ar    1  UNL1        0.0577
     19 CL        144.8417  130.1319  155.4346 Cl      1  UNL1       -0.0822
     20 C         143.4097  132.2466  154.9576 C.ar    1  UNL1        0.0115
     21 C         142.9272  133.6075  155.3640 C.ar    1  UNL1        0.0039
     22 C         144.3367  143.6396  162.4063 C.3     1  UNL1        0.1026
     23 C         143.0824  144.3924  162.7385 C.3     1  UNL1        0.0235
     24 C         142.2332  143.9606  163.8971 C.3     1  UNL1        0.0191
     25 C         140.9313  143.2573  163.6518 C.3     1  UNL1        0.0722
     26 C         140.7426  137.2622  163.4991 C.3     1  UNL1        0.0897
     27 N         140.7897  138.7609  163.5373 N.3     1  UNL1       -0.2691
     28 C         140.6550  139.5481  162.2676 C.3     1  UNL1        0.0897
     29 C         140.7022  141.0469  162.3058 C.3     1  UNL1        0.0897
     30 N         140.8841  141.7585  163.6136 N.3     1  UNL1       -0.2703
     31 C         141.0188  140.9713  164.8833 C.3     1  UNL1        0.0897
     32 C         140.9716  139.4725  164.8451 C.3     1  UNL1        0.0897
@<TRIPOS>BOND
     1    26    27    1
     2    27    28    1
     3    28    29    1
     4    29    30    1
     5    30    25    1
     6    25    24    1
     7    24    23    1
     8    23    22    1
     9    22     1    1
    10     1     2   am
    11     2     3    2
    12     2     4    1
    13     4     5    1
    14     5     8    1
    15     8     9    2
    16     9    10    1
    17    10    11   ar
    18    11    12   ar
    19    12    13   ar
    20    13    15    1
    21    15    16   ar
    22    16    17   ar
    23    17    18   ar
    24    18    19    1
    25    18    20   ar
    26    20    21   ar
    27    13    14   ar
    28     5     6   am
    29     6     7    2
    30    30    31    1
    31    31    32    1
    32    32    27    1
    33     6     1   am
    34    14    10   ar
    35    21    15   ar
@<TRIPOS>MOLECULE
*****
 32 35 0 0 0
SMALL
GASTEIGER

@<TRIPOS>ATOM
      1 N         142.0946  138.2668  156.8056 N.am    1  UNL1       -0.2113
      2 C         140.6299  137.9632  156.6938 C.2     1  UNL1        0.2550
      3 O         139.8945  137.6195  155.4324 O.2     1  UNL1       -0.2725
      4 C         140.0296  138.0638  158.0648 C.3     1  UNL1        0.2059
      5 N         141.1233  138.4295  159.0240 N.am    1  UNL1       -0.1551
      6 C         142.3995  138.5549  158.2457 C.2     1  UNL1        0.3324
      7 O         143.7446  138.9068  158.8088 O.2     1  UNL1       -0.2501
      8 N         140.9682  138.6340  160.5018 N.2     1  UNL1       -0.1692
      9 C         139.6456  138.3739  161.1600 C.2     1  UNL1        0.1553
     10 C         139.4904  138.5784  162.6379 C.ar    1  UNL1        0.1660
     11 C         138.8725  137.6094  163.6019 C.ar    1  UNL1        0.0423
     12 C         138.9260  138.2197  164.9711 C.ar    1  UNL1        0.0407
     13 C         139.5771  139.5660  164.8533 C.ar    1  UNL1        0.1454
     14 O         139.9258  139.7876  163.4113 O.2     1  UNL1       -0.4519
     15 C         139.8341  140.5226  165.9796 C.ar    1  UNL1        0.0346
     16 C         140.1074  141.9685  165.6881 C.ar    1  UNL1        0.0039
     17 C         140.3644  142.9250  166.8145 C.ar    1  UNL1        0.0115
     18 C         140.3483  142.4359  168.2324 C.ar    1  UNL1        0.0577
     19 CL        140.6054  143.3926  169.3588 Cl      1  UNL1       -0.0822
     20 C         140.0751  140.9901  168.5240 C.ar    1  UNL1        0.0115
     21 C         139.8180  140.0334  167.3976 C.ar    1  UNL1        0.0039
     22 C         143.0811  138.2798  155.6758 C.3     1  UNL1        0.1026
     23 C         144.0038  137.1148  155.4723 C.3     1  UNL1        0.0235
     24 C         143.4919  135.7146  155.6385 C.3     1  UNL1        0.0191
     25 C         143.6680  135.0020  156.9465 C.3     1  UNL1        0.0722
     26 C         143.6421  129.0046  157.1227 C.3     1  UNL1        0.0897
     27 N         143.6486  130.5040  157.0787 N.3     1  UNL1       -0.2691
     28 C         144.7004  131.2716  157.8233 C.3     1  UNL1        0.0897
     29 C         144.7068  132.7710  157.7792 C.3     1  UNL1        0.0897
     30 N         143.6615  133.5027  156.9906 N.3     1  UNL1       -0.2703
     31 C         142.6098  132.7350  156.2460 C.3     1  UNL1        0.0897
     32 C         142.6033  131.2356  156.2900 C.3     1  UNL1        0.0897
@<TRIPOS>BOND
     1    26    27    1
     2    27    28    1
     3    28    29    1
     4    29    30    1
     5    30    25    1
     6    25    24    1
     7    24    23    1
     8    23    22    1
     9    22     1    1
    10     1     2   am
    11     2     3    2
    12     2     4    1
    13     4     5    1
    14     5     8    1
    15     8     9    2
    16     9    10    1
    17    10    11   ar
    18    11    12   ar
    19    12    13   ar
    20    13    15    1
    21    15    16   ar
    22    16    17   ar
    23    17    18   ar
    24    18    19    1
    25    18    20   ar
    26    20    21   ar
    27    13    14   ar
    28     5     6   am
    29     6     7    2
    30    30    31    1
    31    31    32    1
    32    32    27    1
    33     6     1   am
    34    14    10   ar
    35    21    15   ar
@<TRIPOS>MOLECULE
*****
 32 35 0 0 0
SMALL
GASTEIGER

@<TRIPOS>ATOM
      1 N         141.4387  144.4950  162.9906 N.am    1  UNL1       -0.2113
      2 C         142.4899  143.5895  163.5608 C.2     1  UNL1        0.2550
      3 O         142.6667  143.2470  165.0105 O.2     1  UNL1       -0.2725
      4 C         143.3333  143.0866  162.4269 C.3     1  UNL1        0.2059
      5 N         142.8034  143.6813  161.1559 N.am    1  UNL1       -0.1551
      6 C         141.6325  144.5517  161.5043 C.2     1  UNL1        0.3324
      7 O         140.8013  145.3404  160.5363 O.2     1  UNL1       -0.2501
      8 N         143.3486  143.4468  159.7783 N.2     1  UNL1       -0.1692
      9 C         144.3022  142.3155  159.5318 C.2     1  UNL1        0.1553
     10 C         144.8474  142.0810  158.1542 C.ar    1  UNL1        0.1660
     11 C         144.2152  141.2366  157.0877 C.ar    1  UNL1        0.0423
     12 C         145.0976  141.2834  155.8756 C.ar    1  UNL1        0.0407
     13 C         146.2752  142.1567  156.1929 C.ar    1  UNL1        0.1454
     14 O         146.1205  142.6496  157.6012 O.2     1  UNL1       -0.4519
     15 C         147.4084  142.4803  155.2650 C.ar    1  UNL1        0.0346
     16 C         148.7118  141.7482  155.3891 C.ar    1  UNL1        0.0039
     17 C         149.8450  142.0718  154.4611 C.ar    1  UNL1        0.0115
     18 C         149.6749  143.1274  153.4091 C.ar    1  UNL1        0.0577
     19 CL        150.8082  143.4510  152.4812 Cl      1  UNL1       -0.0822
     20 C         148.3716  143.8595  153.2850 C.ar    1  UNL1        0.0115
     21 C         147.2383  143.5359  154.2130 C.ar    1  UNL1        0.0039
     22 C         140.3797  145.2170  163.7700 C.3     1  UNL1        0.1026
     23 C         139.5143  144.4632  164.7359 C.3     1  UNL1        0.0235
     24 C         138.0739  144.2036  164.4074 C.3     1  UNL1        0.0191
     25 C         137.6779  143.8385  163.0075 C.3     1  UNL1        0.0722
     26 C         138.9729  138.3929  160.8468 C.3     1  UNL1        0.0897
     27 N         138.6491  139.7543  161.3870 N.3     1  UNL1       -0.2691
     28 C         137.9460  139.8905  162.7049 C.3     1  UNL1        0.0897
     29 C         137.6222  141.2519  163.2451 C.3     1  UNL1        0.0897
     30 N         138.0016  142.4771  162.4673 N.3     1  UNL1       -0.2703
     31 C         138.7048  142.3409  161.1494 C.3     1  UNL1        0.0897
     32 C         139.0286  140.9795  160.6093 C.3     1  UNL1        0.0897
@<TRIPOS>BOND
     1    26    27    1
     2    27    28    1
     3    28    29    1
     4    29    30    1
     5    30    25    1
     6    25    24    1
     7    24    23    1
     8    23    22    1
     9    22     1    1
    10     1     2   am
    11     2     3    2
    12     2     4    1
    13     4     5    1
    14     5     8    1
    15     8     9    2
    16     9    10    1
    17    10    11   ar
    18    11    12   ar
    19    12    13   ar
    20    13    15    1
    21    15    16   ar
    22    16    17   ar
    23    17    18   ar
    24    18    19    1
    25    18    20   ar
    26    20    21   ar
    27    13    14   ar
    28     5     6   am
    29     6     7    2
    30    30    31    1
    31    31    32    1
    32    32    27    1
    33     6     1   am
    34    14    10   ar
    35    21    15   ar
@<TRIPOS>MOLECULE
*****
 32 35 0 0 0
SMALL
GASTEIGER

@<TRIPOS>ATOM
      1 N         144.3962  141.6107  162.8174 N.am    1  UNL1       -0.2113
      2 C         144.3305  142.7183  161.8080 C.2     1  UNL1        0.2550
      3 O         144.4217  144.1863  162.1026 O.2     1  UNL1       -0.2725
      4 C         144.1575  142.1003  160.4522 C.3     1  UNL1        0.2059
      5 N         144.1164  140.6107  160.6237 N.am    1  UNL1       -0.1551
      6 C         144.2639  140.3081  162.0854 C.2     1  UNL1        0.3324
      7 O         144.2768  138.9427  162.7062 O.2     1  UNL1       -0.2501
      8 N         143.9559  139.6009  159.5261 N.2     1  UNL1       -0.1692
      9 C         142.7661  138.6875  159.5156 C.2     1  UNL1        0.1553
     10 C         142.6056  137.6777  158.4181 C.ar    1  UNL1        0.1660
     11 C         141.7044  137.8070  157.2259 C.ar    1  UNL1        0.0423
     12 C         141.8599  136.5706  156.3910 C.ar    1  UNL1        0.0407
     13 C         142.8573  135.6771  157.0671 C.ar    1  UNL1        0.1454
     14 O         143.3181  136.3614  158.3199 O.2     1  UNL1       -0.4519
     15 C         143.3136  134.3351  156.5766 C.ar    1  UNL1        0.0346
     16 C         142.9014  133.8535  155.2171 C.ar    1  UNL1        0.0039
     17 C         143.3578  132.5115  154.7267 C.ar    1  UNL1        0.0115
     18 C         144.2264  131.6509  155.5956 C.ar    1  UNL1        0.0577
     19 CL        144.6827  130.3089  155.1050 Cl      1  UNL1       -0.0822
     20 C         144.6386  132.1325  156.9551 C.ar    1  UNL1        0.0115
     21 C         144.1822  133.4745  157.4456 C.ar    1  UNL1        0.0039
     22 C         144.5647  141.7766  164.2986 C.3     1  UNL1        0.1026
     23 C         143.3597  141.9419  165.1767 C.3     1  UNL1        0.0235
     24 C         142.4935  143.1589  165.0401 C.3     1  UNL1        0.0191
     25 C         141.2018  143.0788  164.2818 C.3     1  UNL1        0.0722
     26 C         138.8163  137.7307  162.9756 C.3     1  UNL1        0.0897
     27 N         139.4127  139.0677  163.3021 N.3     1  UNL1       -0.2691
     28 C         139.2051  139.6700  164.6601 C.3     1  UNL1        0.0897
     29 C         139.8015  141.0070  164.9867 C.3     1  UNL1        0.0897
     30 N         140.6054  141.7418  163.9553 N.3     1  UNL1       -0.2703
     31 C         140.8130  141.1395  162.5973 C.3     1  UNL1        0.0897
     32 C         140.2166  139.8024  162.2707 C.3     1  UNL1        0.0897
@<TRIPOS>BOND
     1    26    27    1
     2    27    28    1
     3    28    29    1
     4    29    30    1
     5    30    25    1
     6    25    24    1
     7    24    23    1
     8    23    22    1
     9    22     1    1
    10     1     2   am
    11     2     3    2
    12     2     4    1
    13     4     5    1
    14     5     8    1
    15     8     9    2
    16     9    10    1
    17    10    11   ar
    18    11    12   ar
    19    12    13   ar
    20    13    15    1
    21    15    16   ar
    22    16    17   ar
    23    17    18   ar
    24    18    19    1
    25    18    20   ar
    26    20    21   ar
    27    13    14   ar
    28     5     6   am
    29     6     7    2
    30    30    31    1
    31    31    32    1
    32    32    27    1
    33     6     1   am
    34    14    10   ar
    35    21    15   ar
@<TRIPOS>MOLECULE
*****
 32 35 0 0 0
SMALL
GASTEIGER

@<TRIPOS>ATOM
      1 N         141.3797  138.3446  156.6395 N.am    1  UNL1       -0.2113
      2 C         139.9453  138.1220  157.0179 C.2     1  UNL1        0.2550
      3 O         138.8116  137.8717  156.0682 O.2     1  UNL1       -0.2725
      4 C         139.8438  138.1936  158.5128 C.3     1  UNL1        0.2059
      5 N         141.2153  138.4604  159.0583 N.am    1  UNL1       -0.1551
      6 C         142.1645  138.5537  157.9006 C.2     1  UNL1        0.3324
      7 O         143.6397  138.8111  157.9885 O.2     1  UNL1       -0.2501
      8 N         141.5746  138.6080  160.5071 N.2     1  UNL1       -0.1692
      9 C         140.5045  138.5388  161.5559 C.2     1  UNL1        0.1553
     10 C         140.8638  138.6864  163.0048 C.ar    1  UNL1        0.1660
     11 C         141.8493  137.8439  163.7590 C.ar    1  UNL1        0.0423
     12 C         141.8953  138.3392  165.1741 C.ar    1  UNL1        0.0407
     13 C         140.9382  139.4879  165.2945 C.ar    1  UNL1        0.1454
     14 O         140.3007  139.7025  163.9537 O.2     1  UNL1       -0.4519
     15 C         140.6663  140.2825  166.5373 C.ar    1  UNL1        0.0346
     16 C         141.2724  141.6444  166.7045 C.ar    1  UNL1        0.0039
     17 C         141.0005  142.4389  167.9473 C.ar    1  UNL1        0.0115
     18 C         140.1225  141.8716  169.0231 C.ar    1  UNL1        0.0577
     19 CL        139.8507  142.6662  170.2660 Cl      1  UNL1       -0.0822
     20 C         139.5164  140.5098  168.8560 C.ar    1  UNL1        0.0115
     21 C         139.7883  139.7152  167.6132 C.ar    1  UNL1        0.0039
     22 C         141.9321  138.3560  155.2450 C.3     1  UNL1        0.1026
     23 C         142.6151  137.1373  154.6989 C.3     1  UNL1        0.0235
     24 C         141.8081  135.9294  154.3251 C.3     1  UNL1        0.0191
     25 C         141.2807  135.0194  155.3945 C.3     1  UNL1        0.0722
     26 C         144.9251  131.0337  158.0083 C.3     1  UNL1        0.0897
     27 N         144.0140  132.0301  157.3549 N.3     1  UNL1       -0.2691
     28 C         142.9410  131.5628  156.4167 C.3     1  UNL1        0.0897
     29 C         142.0298  132.5592  155.7633 C.3     1  UNL1        0.0897
     30 N         142.1918  134.0230  156.0480 N.3     1  UNL1       -0.2703
     31 C         143.2648  134.4903  156.9861 C.3     1  UNL1        0.0897
     32 C         144.1759  133.4939  157.6395 C.3     1  UNL1        0.0897
@<TRIPOS>BOND
     1    26    27    1
     2    27    28    1
     3    28    29    1
     4    29    30    1
     5    30    25    1
     6    25    24    1
     7    24    23    1
     8    23    22    1
     9    22     1    1
    10     1     2   am
    11     2     3    2
    12     2     4    1
    13     4     5    1
    14     5     8    1
    15     8     9    2
    16     9    10    1
    17    10    11   ar
    18    11    12   ar
    19    12    13   ar
    20    13    15    1
    21    15    16   ar
    22    16    17   ar
    23    17    18   ar
    24    18    19    1
    25    18    20   ar
    26    20    21   ar
    27    13    14   ar
    28     5     6   am
    29     6     7    2
    30    30    31    1
    31    31    32    1
    32    32    27    1
    33     6     1   am
    34    14    10   ar
    35    21    15   ar
@<TRIPOS>MOLECULE
*****
 32 35 0 0 0
SMALL
GASTEIGER

@<TRIPOS>ATOM
      1 N         139.3945  138.8056  159.0642 N.am    1  UNL1       -0.2113
      2 C         138.3864  139.9150  159.0099 C.2     1  UNL1        0.2550
      3 O         137.5911  140.3254  157.8062 O.2     1  UNL1       -0.2725
      4 C         138.3133  140.5420  160.3706 C.3     1  UNL1        0.2059
      5 N         139.2762  139.8201  161.2660 N.am    1  UNL1       -0.1551
      6 C         139.9444  138.7470  160.4586 C.2     1  UNL1        0.3324
      7 O         140.9806  137.7842  160.9579 O.2     1  UNL1       -0.2501
      8 N         139.5269  140.1189  162.7144 N.2     1  UNL1       -0.1692
      9 C         138.8170  139.3322  163.7761 C.2     1  UNL1        0.1553
     10 C         139.0676  139.6309  165.2245 C.ar    1  UNL1        0.1660
     11 C         138.3132  139.0563  166.3867 C.ar    1  UNL1        0.0423
     12 C         138.8960  139.6270  167.6455 C.ar    1  UNL1        0.0407
     13 C         140.0108  140.5543  167.2614 C.ar    1  UNL1        0.1454
     14 O         140.1168  140.5567  165.7651 O.2     1  UNL1       -0.4519
     15 C         140.8687  141.3410  168.2073 C.ar    1  UNL1        0.0346
     16 C         140.3498  142.6133  168.8092 C.ar    1  UNL1        0.0039
     17 C         141.2078  143.3999  169.7552 C.ar    1  UNL1        0.0115
     18 C         142.5847  142.9145  170.0993 C.ar    1  UNL1        0.0577
     19 CL        143.4427  143.7013  171.0453 Cl      1  UNL1       -0.0822
     20 C         143.1036  141.6423  169.4975 C.ar    1  UNL1        0.0115
     21 C         142.2457  140.8556  168.5515 C.ar    1  UNL1        0.0039
     22 C         139.7843  137.9118  157.9244 C.3     1  UNL1        0.1026
     23 C         140.9656  138.2603  157.0681 C.3     1  UNL1        0.0235
     24 C         141.8773  139.3821  157.4685 C.3     1  UNL1        0.0191
     25 C         143.1378  139.0897  158.2271 C.3     1  UNL1        0.0722
     26 C         144.8117  142.6559  162.7526 C.3     1  UNL1        0.0897
     27 N         144.3932  141.7644  161.6212 N.3     1  UNL1       -0.2691
     28 C         144.3604  140.2769  161.8112 C.3     1  UNL1        0.0897
     29 C         143.9420  139.3853  160.6798 C.3     1  UNL1        0.0897
     30 N         143.5563  139.9812  159.3585 N.3     1  UNL1       -0.2703
     31 C         143.5891  141.4688  159.1685 C.3     1  UNL1        0.0897
     32 C         144.0076  142.3603  160.2998 C.3     1  UNL1        0.0897
@<TRIPOS>BOND
     1    26    27    1
     2    27    28    1
     3    28    29    1
     4    29    30    1
     5    30    25    1
     6    25    24    1
     7    24    23    1
     8    23    22    1
     9    22     1    1
    10     1     2   am
    11     2     3    2
    12     2     4    1
    13     4     5    1
    14     5     8    1
    15     8     9    2
    16     9    10    1
    17    10    11   ar
    18    11    12   ar
    19    12    13   ar
    20    13    15    1
    21    15    16   ar
    22    16    17   ar
    23    17    18   ar
    24    18    19    1
    25    18    20   ar
    26    20    21   ar
    27    13    14   ar
    28     5     6   am
    29     6     7    2
    30    30    31    1
    31    31    32    1
    32    32    27    1
    33     6     1   am
    34    14    10   ar
    35    21    15   ar
@<TRIPOS>MOLECULE
*****
 32 35 0 0 0
SMALL
GASTEIGER

@<TRIPOS>ATOM
      1 N         144.5534  141.5278  162.8842 N.am    1  UNL1       -0.2113
      2 C         144.3958  142.5434  161.7917 C.2     1  UNL1        0.2550
      3 O         144.5038  144.0313  161.9488 O.2     1  UNL1       -0.2725
      4 C         144.1114  141.8101  160.5145 C.3     1  UNL1        0.2059
      5 N         144.0931  140.3412  160.8176 N.am    1  UNL1       -0.1551
      6 C         144.3663  140.1667  162.2821 C.2     1  UNL1        0.3324
      7 O         144.4395  138.8604  163.0158 O.2     1  UNL1       -0.2501
      8 N         143.8452  139.2400  159.8296 N.2     1  UNL1       -0.1692
      9 C         143.1063  139.5273  158.5563 C.2     1  UNL1        0.1553
     10 C         142.8584  138.4262  157.5683 C.ar    1  UNL1        0.1660
     11 C         142.4960  138.6030  156.1235 C.ar    1  UNL1        0.0423
     12 C         142.3430  137.2411  155.5139 C.ar    1  UNL1        0.0407
     13 C         142.6108  136.2224  156.5820 C.ar    1  UNL1        0.1454
     14 O         142.9293  136.9549  157.8517 O.2     1  UNL1       -0.4519
     15 C         142.5676  134.7329  156.4105 C.ar    1  UNL1        0.0346
     16 C         143.4444  133.8551  157.2536 C.ar    1  UNL1        0.0039
     17 C         143.4012  132.3656  157.0820 C.ar    1  UNL1        0.0115
     18 C         142.4812  131.7538  156.0675 C.ar    1  UNL1        0.0577
     19 CL        142.4381  130.2643  155.8960 Cl      1  UNL1       -0.0822
     20 C         141.6044  132.6316  155.2244 C.ar    1  UNL1        0.0115
     21 C         141.6475  134.1211  155.3959 C.ar    1  UNL1        0.0039
     22 C         144.8466  141.8216  164.3256 C.3     1  UNL1        0.1026
     23 C         143.7198  142.0624  165.2862 C.3     1  UNL1        0.0235
     24 C         142.8457  143.2712  165.1288 C.3     1  UNL1        0.0191
     25 C         141.4158  143.1126  164.7044 C.3     1  UNL1        0.0722
     26 C         140.1143  141.6498  159.0329 C.3     1  UNL1        0.0897
     27 N         140.4397  142.0155  160.4508 N.3     1  UNL1       -0.2691
     28 C         140.6242  143.4548  160.8307 C.3     1  UNL1        0.0897
     29 C         140.9496  143.8205  162.2485 C.3     1  UNL1        0.0897
     30 N         141.0904  142.7469  163.2866 N.3     1  UNL1       -0.2703
     31 C         140.9059  141.3076  162.9067 C.3     1  UNL1        0.0897
     32 C         140.5805  140.9419  161.4888 C.3     1  UNL1        0.0897
@<TRIPOS>BOND
     1    26    27    1
     2    27    28    1
     3    28    29    1
     4    29    30    1
     5    30    25    1
     6    25    24    1
     7    24    23    1
     8    23    22    1
     9    22     1    1
    10     1     2   am
    11     2     3    2
    12     2     4    1
    13     4     5    1
    14     5     8    1
    15     8     9    2
    16     9    10    1
    17    10    11   ar
    18    11    12   ar
    19    12    13   ar
    20    13    15    1
    21    15    16   ar
    22    16    17   ar
    23    17    18   ar
    24    18    19    1
    25    18    20   ar
    26    20    21   ar
    27    13    14   ar
    28     5     6   am
    29     6     7    2
    30    30    31    1
    31    31    32    1
    32    32    27    1
    33     6     1   am
    34    14    10   ar
    35    21    15   ar
