@<TRIPOS>MOLECULE
*****
 38 42 0 0 0
SMALL
GASTEIGER

@<TRIPOS>ATOM
      1 N         143.3593  138.6021  157.8978 N.am    1  UNL1       -0.2999
      2 C         142.7238  137.7418  156.8461 C.2     1  UNL1        0.2701
      3 O         141.4636  136.9888  157.1538 O.2     1  UNL1       -0.2706
      4 H         144.1864  139.0963  157.6958 H       1  UNL1        0.1496
      5 N         141.8509  138.8607  161.1799 N.3     1  UNL1       -0.2711
      6 C         143.0993  138.2347  160.6327 C.3     1  UNL1        0.0933
      7 C         142.7345  138.7092  159.2573 C.3     1  UNL1        0.1035
      8 C         141.4860  139.3352  159.8045 C.3     1  UNL1        0.0933
      9 C         139.9764  139.1822  165.2582 C.3     1  UNL1        0.0240
     10 C         140.2450  140.4212  164.4564 C.3     1  UNL1        0.0058
     11 C         140.8698  140.3140  163.0970 C.3     1  UNL1        0.0163
     12 C         141.2260  138.9679  162.5393 C.3     1  UNL1        0.0576
     13 C         140.9574  137.7289  163.3411 C.3     1  UNL1        0.0163
     14 C         140.3326  137.8361  164.7005 C.3     1  UNL1        0.0058
     15 C         138.1021  139.5042  169.3366 C.ar    1  UNL1        0.2250
     16 C         139.3943  140.2087  169.0474 C.ar    1  UNL1        0.0574
     17 C         140.0190  140.1014  167.6879 C.ar    1  UNL1        0.0020
     18 C         139.3515  139.2895  166.6176 C.ar    1  UNL1       -0.0031
     19 C         138.0593  138.5849  166.9069 C.ar    1  UNL1        0.0977
     20 N         137.4345  138.6923  168.2664 N.ar    1  UNL1       -0.2105
     21 C         136.3438  138.7048  171.0743 C.3     1  UNL1        0.2542
     22 O         137.4773  139.6115  170.6961 O.3     1  UNL1       -0.4561
     23 C         143.3487  137.6347  155.4866 C.3     1  UNL1        0.2850
     24 N         143.9204  136.3269  155.0249 N.pl3   1  UNL1       -0.2091
     25 H         144.8962  136.2073  154.9726 H       1  UNL1        0.2928
     26 C         143.0053  135.2015  154.6429 C.2     1  UNL1        0.3493
     27 N         141.8960  135.2702  153.6356 N.2     1  UNL1        0.0798
     28 N         141.2440  133.9209  153.5714 N.2     1  UNL1       -0.0381
     29 C         141.9503  133.0182  154.5390 C.2     1  UNL1        0.1169
     30 C         141.7429  131.5778  154.9026 C.3     1  UNL1        0.0759
     31 C         142.6240  130.9289  155.9285 C.2     1  UNL1       -0.0158
     32 C         143.7126  131.7204  156.5907 C.2     1  UNL1        0.0678
     33 C         143.9200  133.1607  156.2271 C.2     1  UNL1        0.0123
     34 C         143.0389  133.8096  155.2013 C.2     1  UNL1        0.1019
     35 C         144.5938  131.0714  157.6166 C.3     1  UNL1        0.4183
     36 F         145.4749  130.4224  158.6425 F       1  UNL1       -0.1659
     37 F         143.4912  130.1132  157.9576 F       1  UNL1       -0.1659
     38 F         145.6963  132.0295  157.2757 F       1  UNL1       -0.1659
@<TRIPOS>BOND
     1    21    22    1
     2    22    15    1
     3    15    16   ar
     4    16    17   ar
     5    17    18   ar
     6     9    18    1
     7     9    10    1
     8    10    11    1
     9    11    12    1
    10    12     5    1
    11     5     6    1
    12     6     7    1
    13     7     1    1
    14     1     2   am
    15     2     3    2
    16     2    23    1
    17    23    24    1
    18    24    26    1
    19    26    27    2
    20    27    28    1
    21    28    29    2
    22    29    30    1
    23    30    31    1
    24    31    32    2
    25    32    35    1
    26    35    36    1
    27    35    37    1
    28    35    38    1
    29    32    33    1
    30    33    34    2
    31     7     8    1
    32    12    13    1
    33    13    14    1
    34    18    19   ar
    35    19    20   ar
    36    20    15   ar
    37    14     9    1
    38     8     5    1
    39    34    26    1
    40    34    29    1
    41     1     4    1
    42    24    25    1
@<TRIPOS>MOLECULE
*****
 38 42 0 0 0
SMALL
GASTEIGER

@<TRIPOS>ATOM
      1 N         142.8814  137.3113  157.5369 N.am    1  UNL1       -0.2999
      2 C         143.6084  138.2827  156.6550 C.2     1  UNL1        0.2701
      3 O         144.0530  139.6061  157.2035 O.2     1  UNL1       -0.2706
      4 H         142.5896  136.4427  157.1769 H       1  UNL1        0.1496
      5 N         142.1994  138.1614  160.9904 N.3     1  UNL1       -0.2711
      6 C         141.4990  138.3895  159.6837 C.3     1  UNL1        0.0933
      7 C         142.5989  137.6634  158.9674 C.3     1  UNL1        0.1035
      8 C         143.2992  137.4354  160.2741 C.3     1  UNL1        0.0933
      9 C         141.3520  139.2178  165.2818 C.3     1  UNL1        0.0240
     10 C         140.8291  137.9342  164.7080 C.3     1  UNL1        0.0058
     11 C         141.1116  137.5822  163.2776 C.3     1  UNL1        0.0163
     12 C         141.9169  138.5135  162.4209 C.3     1  UNL1        0.0576
     13 C         142.4398  139.7970  162.9947 C.3     1  UNL1        0.0163
     14 C         142.1573  140.1491  164.4251 C.3     1  UNL1        0.0058
     15 C         140.5042  140.2738  169.5732 C.ar    1  UNL1        0.2250
     16 C         139.3743  140.1458  168.5951 C.ar    1  UNL1        0.0574
     17 C         139.6569  139.7937  167.1646 C.ar    1  UNL1        0.0020
     18 C         141.0695  139.5697  166.7123 C.ar    1  UNL1       -0.0031
     19 C         142.1994  139.6978  167.6905 C.ar    1  UNL1        0.0977
     20 N         141.9167  140.0498  169.1209 N.ar    1  UNL1       -0.2105
     21 C         140.7694  141.8949  171.5861 C.3     1  UNL1        0.2542
     22 O         140.2216  140.6258  171.0036 O.3     1  UNL1       -0.4561
     23 C         143.8909  137.9306  155.2246 C.3     1  UNL1        0.2850
     24 N         144.2320  136.5178  154.8532 N.pl3   1  UNL1       -0.2091
     25 H         145.1742  136.2428  154.7767 H       1  UNL1        0.2928
     26 C         143.1376  135.5242  154.5984 C.2     1  UNL1        0.3493
     27 N         141.9482  135.7315  153.7083 N.2     1  UNL1        0.0798
     28 N         141.1160  134.4842  153.7488 N.2     1  UNL1       -0.0381
     29 C         141.7911  133.5060  154.6639 C.2     1  UNL1        0.1169
     30 C         141.4295  132.1130  155.0868 C.3     1  UNL1        0.0759
     31 C         142.3174  131.3628  156.0348 C.2     1  UNL1       -0.0158
     32 C         143.5669  132.0056  156.5599 C.2     1  UNL1        0.0678
     33 C         143.9285  133.3985  156.1370 C.2     1  UNL1        0.0123
     34 C         143.0406  134.1487  155.1890 C.2     1  UNL1        0.1019
     35 C         144.4548  131.2553  157.5080 C.3     1  UNL1        0.4183
     36 F         145.3427  130.5051  158.4560 F       1  UNL1       -0.1659
     37 F         143.3124  130.3498  157.8614 F       1  UNL1       -0.1659
     38 F         145.5972  132.1608  157.1546 F       1  UNL1       -0.1659
@<TRIPOS>BOND
     1    21    22    1
     2    22    15    1
     3    15    16   ar
     4    16    17   ar
     5    17    18   ar
     6     9    18    1
     7     9    10    1
     8    10    11    1
     9    11    12    1
    10    12     5    1
    11     5     6    1
    12     6     7    1
    13     7     1    1
    14     1     2   am
    15     2     3    2
    16     2    23    1
    17    23    24    1
    18    24    26    1
    19    26    27    2
    20    27    28    1
    21    28    29    2
    22    29    30    1
    23    30    31    1
    24    31    32    2
    25    32    35    1
    26    35    36    1
    27    35    37    1
    28    35    38    1
    29    32    33    1
    30    33    34    2
    31     7     8    1
    32    12    13    1
    33    13    14    1
    34    18    19   ar
    35    19    20   ar
    36    20    15   ar
    37    14     9    1
    38     8     5    1
    39    34    26    1
    40    34    29    1
    41     1     4    1
    42    24    25    1
@<TRIPOS>MOLECULE
*****
 38 42 0 0 0
SMALL
GASTEIGER

@<TRIPOS>ATOM
      1 N         143.2339  138.2608  156.6611 N.am    1  UNL1       -0.2999
      2 C         142.0023  138.4097  155.8179 C.2     1  UNL1        0.2701
      3 O         140.7178  138.8700  156.4410 O.2     1  UNL1       -0.2706
      4 H         144.0769  137.9587  156.2521 H       1  UNL1        0.1496
      5 N         143.1061  139.0128  160.2012 N.3     1  UNL1       -0.2711
      6 C         142.8068  137.8063  159.3617 C.3     1  UNL1        0.0933
      7 C         143.1810  138.5723  158.1274 C.3     1  UNL1        0.1035
      8 C         143.4803  139.7787  158.9670 C.3     1  UNL1        0.0933
      9 C         142.9474  139.9473  164.6002 C.3     1  UNL1        0.0240
     10 C         141.7204  140.1133  163.7534 C.3     1  UNL1        0.0058
     11 C         141.7733  139.8018  162.2871 C.3     1  UNL1        0.0163
     12 C         143.0532  139.3243  161.6675 C.3     1  UNL1        0.0576
     13 C         144.2802  139.1583  162.5143 C.3     1  UNL1        0.0163
     14 C         144.2272  139.4698  163.9806 C.3     1  UNL1        0.0058
     15 C         142.7883  140.8822  168.9991 C.ar    1  UNL1        0.2250
     16 C         142.8203  141.9971  167.9962 C.ar    1  UNL1        0.0574
     17 C         142.8733  141.6854  166.5299 C.ar    1  UNL1        0.0020
     18 C         142.8943  140.2589  166.0665 C.ar    1  UNL1       -0.0031
     19 C         142.8623  139.1440  167.0695 C.ar    1  UNL1        0.0977
     20 N         142.8093  139.4557  168.5359 N.ar    1  UNL1       -0.2105
     21 C         141.4586  140.9980  171.2281 C.3     1  UNL1        0.2542
     22 O         142.7353  141.1939  170.4654 O.3     1  UNL1       -0.4561
     23 C         142.0552  138.0981  154.3515 C.3     1  UNL1        0.2850
     24 N         142.8833  136.9486  153.8584 N.pl3   1  UNL1       -0.2091
     25 H         143.8153  137.0978  153.5784 H       1  UNL1        0.2928
     26 C         142.2913  135.5720  153.7919 C.2     1  UNL1        0.3493
     27 N         141.2106  135.1213  152.8543 N.2     1  UNL1        0.0798
     28 N         140.9276  133.6751  153.1343 N.2     1  UNL1       -0.0381
     29 C         141.8332  133.2320  154.2448 C.2     1  UNL1        0.1169
     30 C         141.9993  131.9125  154.9385 C.3     1  UNL1        0.0759
     31 C         143.0083  131.7653  156.0386 C.2     1  UNL1       -0.0158
     32 C         143.8512  132.9377  156.4451 C.2     1  UNL1        0.0678
     33 C         143.6851  134.2572  155.7514 C.2     1  UNL1        0.0123
     34 C         142.6761  134.4044  154.6513 C.2     1  UNL1        0.1019
     35 C         144.8602  132.7905  157.5452 C.3     1  UNL1        0.4183
     36 F         145.8691  132.6433  158.6454 F       1  UNL1       -0.1659
     37 F         145.6555  131.8492  156.6900 F       1  UNL1       -0.1659
     38 F         144.0649  133.7317  158.4005 F       1  UNL1       -0.1659
@<TRIPOS>BOND
     1    21    22    1
     2    22    15    1
     3    15    16   ar
     4    16    17   ar
     5    17    18   ar
     6     9    18    1
     7     9    10    1
     8    10    11    1
     9    11    12    1
    10    12     5    1
    11     5     6    1
    12     6     7    1
    13     7     1    1
    14     1     2   am
    15     2     3    2
    16     2    23    1
    17    23    24    1
    18    24    26    1
    19    26    27    2
    20    27    28    1
    21    28    29    2
    22    29    30    1
    23    30    31    1
    24    31    32    2
    25    32    35    1
    26    35    36    1
    27    35    37    1
    28    35    38    1
    29    32    33    1
    30    33    34    2
    31     7     8    1
    32    12    13    1
    33    13    14    1
    34    18    19   ar
    35    19    20   ar
    36    20    15   ar
    37    14     9    1
    38     8     5    1
    39    34    26    1
    40    34    29    1
    41     1     4    1
    42    24    25    1
@<TRIPOS>MOLECULE
*****
 38 42 0 0 0
SMALL
GASTEIGER

@<TRIPOS>ATOM
      1 N         141.3741  143.9122  160.4105 N.am    1  UNL1       -0.2999
      2 C         140.0461  144.4657  160.8346 C.2     1  UNL1        0.2701
      3 O         138.7889  143.6973  160.5533 O.2     1  UNL1       -0.2706
      4 H         142.1993  144.4165  160.5951 H       1  UNL1        0.1496
      5 N         141.5452  140.7208  158.7076 N.3     1  UNL1       -0.2711
      6 C         141.3072  141.1563  160.1231 C.3     1  UNL1        0.0933
      7 C         141.4450  142.5903  159.7051 C.3     1  UNL1        0.1035
      8 C         141.6830  142.1548  158.2896 C.3     1  UNL1        0.0933
      9 C         141.7577  136.7551  156.5914 C.3     1  UNL1        0.0240
     10 C         140.4627  137.5107  156.6405 C.3     1  UNL1        0.0058
     11 C         140.3919  138.8325  157.3459 C.3     1  UNL1        0.0163
     12 C         141.6160  139.3989  158.0022 C.3     1  UNL1        0.0576
     13 C         142.9109  138.6435  157.9531 C.3     1  UNL1        0.0163
     14 C         142.9818  137.3216  157.2477 C.3     1  UNL1        0.0058
     15 C         141.9700  132.7895  154.4753 C.ar    1  UNL1        0.2250
     16 C         142.6743  132.9787  155.7860 C.ar    1  UNL1        0.0574
     17 C         142.6035  134.3006  156.4914 C.ar    1  UNL1        0.0020
     18 C         141.8284  135.4333  155.8860 C.ar    1  UNL1       -0.0031
     19 C         141.1242  135.2440  154.5752 C.ar    1  UNL1        0.0977
     20 N         141.1950  133.9220  153.8698 N.ar    1  UNL1       -0.2105
     21 C         142.9828  131.2819  152.6175 C.3     1  UNL1        0.2542
     22 O         142.0408  131.4675  153.7699 O.3     1  UNL1       -0.4561
     23 C         139.9752  145.7876  161.5400 C.3     1  UNL1        0.2850
     24 N         140.6794  145.9768  162.8510 N.pl3   1  UNL1       -0.2091
     25 H         141.2441  146.7700  162.9964 H       1  UNL1        0.2928
     26 C         140.5230  144.9575  163.9403 C.2     1  UNL1        0.3493
     27 N         139.3329  144.8046  164.8404 N.2     1  UNL1        0.0798
     28 N         139.6036  143.6648  165.7772 N.2     1  UNL1       -0.0381
     29 C         140.9611  143.1133  165.4560 C.2     1  UNL1        0.1169
     30 C         141.7531  141.9868  166.0505 C.3     1  UNL1        0.0759
     31 C         143.1134  141.6592  165.5099 C.2     1  UNL1       -0.0158
     32 C         143.6816  142.4582  164.3746 C.2     1  UNL1        0.0678
     33 C         142.8895  143.5847  163.7800 C.2     1  UNL1        0.0123
     34 C         141.5293  143.9122  164.3207 C.2     1  UNL1        0.1019
     35 C         145.0419  142.1306  163.8339 C.3     1  UNL1        0.4183
     36 F         146.4022  141.8030  163.2933 F       1  UNL1       -0.1659
     37 F         145.0165  143.3840  163.0105 F       1  UNL1       -0.1659
     38 F         145.0673  140.8771  164.6574 F       1  UNL1       -0.1659
@<TRIPOS>BOND
     1    21    22    1
     2    22    15    1
     3    15    16   ar
     4    16    17   ar
     5    17    18   ar
     6     9    18    1
     7     9    10    1
     8    10    11    1
     9    11    12    1
    10    12     5    1
    11     5     6    1
    12     6     7    1
    13     7     1    1
    14     1     2   am
    15     2     3    2
    16     2    23    1
    17    23    24    1
    18    24    26    1
    19    26    27    2
    20    27    28    1
    21    28    29    2
    22    29    30    1
    23    30    31    1
    24    31    32    2
    25    32    35    1
    26    35    36    1
    27    35    37    1
    28    35    38    1
    29    32    33    1
    30    33    34    2
    31     7     8    1
    32    12    13    1
    33    13    14    1
    34    18    19   ar
    35    19    20   ar
    36    20    15   ar
    37    14     9    1
    38     8     5    1
    39    34    26    1
    40    34    29    1
    41     1     4    1
    42    24    25    1
@<TRIPOS>MOLECULE
*****
 38 42 0 0 0
SMALL
GASTEIGER

@<TRIPOS>ATOM
      1 N         140.5532  138.9941  156.1447 N.am    1  UNL1       -0.2999
      2 C         139.7587  137.9922  155.3606 C.2     1  UNL1        0.2701
      3 O         138.7779  137.0990  156.0607 O.2     1  UNL1       -0.2706
      4 H         141.1969  139.5803  155.6851 H       1  UNL1        0.1496
      5 N         140.1036  139.2563  159.7285 N.3     1  UNL1       -0.2711
      6 C         141.1665  138.6951  158.8311 C.3     1  UNL1        0.0933
      7 C         140.3670  139.1027  157.6291 C.3     1  UNL1        0.1035
      8 C         139.3041  139.6640  158.5265 C.3     1  UNL1        0.0933
      9 C         139.5448  139.5823  164.1817 C.3     1  UNL1        0.0240
     10 C         140.2080  140.6951  163.4255 C.3     1  UNL1        0.0058
     11 C         140.3942  140.5865  161.9412 C.3     1  UNL1        0.0163
     12 C         139.9173  139.3650  161.2129 C.3     1  UNL1        0.0576
     13 C         139.2541  138.2521  161.9690 C.3     1  UNL1        0.0163
     14 C         139.0678  138.3608  163.4534 C.3     1  UNL1        0.0058
     15 C         138.9863  139.9087  168.6350 C.ar    1  UNL1        0.2250
     16 C         140.0050  140.7643  167.9422 C.ar    1  UNL1        0.0574
     17 C         140.1912  140.6555  166.4578 C.ar    1  UNL1        0.0020
     18 C         139.3585  139.6910  165.6661 C.ar    1  UNL1       -0.0031
     19 C         138.3398  138.8355  166.3590 C.ar    1  UNL1        0.0977
     20 N         138.1536  138.9443  167.8434 N.ar    1  UNL1       -0.2105
     21 C         139.9913  139.9722  171.0299 C.3     1  UNL1        0.2542
     22 O         138.8001  140.0176  170.1194 O.3     1  UNL1       -0.4561
     23 C         139.9450  137.8836  153.8761 C.3     1  UNL1        0.2850
     24 N         141.2058  137.2910  153.3198 N.pl3   1  UNL1       -0.2091
     25 H         141.3293  137.2224  152.3455 H       1  UNL1        0.2928
     26 C         142.2784  136.8031  154.2480 C.2     1  UNL1        0.3493
     27 N         143.3832  137.6326  154.8322 N.2     1  UNL1        0.0798
     28 N         144.2220  136.7421  155.7002 N.2     1  UNL1       -0.0381
     29 C         143.6356  135.3623  155.6525 C.2     1  UNL1        0.1169
     30 C         144.0403  134.0764  156.3103 C.3     1  UNL1        0.0759
     31 C         143.2437  132.8283  156.0705 C.2     1  UNL1       -0.0158
     32 C         142.0424  132.8660  155.1730 C.2     1  UNL1        0.0678
     33 C         141.6378  134.1518  154.5152 C.2     1  UNL1        0.0123
     34 C         142.4343  135.4000  154.7549 C.2     1  UNL1        0.1019
     35 C         141.2459  131.6177  154.9333 C.3     1  UNL1        0.4183
     36 F         140.4493  130.3696  154.6936 F       1  UNL1       -0.1659
     37 F         141.9316  130.9574  156.0925 F       1  UNL1       -0.1659
     38 F         140.5601  132.2780  153.7741 F       1  UNL1       -0.1659
@<TRIPOS>BOND
     1    21    22    1
     2    22    15    1
     3    15    16   ar
     4    16    17   ar
     5    17    18   ar
     6     9    18    1
     7     9    10    1
     8    10    11    1
     9    11    12    1
    10    12     5    1
    11     5     6    1
    12     6     7    1
    13     7     1    1
    14     1     2   am
    15     2     3    2
    16     2    23    1
    17    23    24    1
    18    24    26    1
    19    26    27    2
    20    27    28    1
    21    28    29    2
    22    29    30    1
    23    30    31    1
    24    31    32    2
    25    32    35    1
    26    35    36    1
    27    35    37    1
    28    35    38    1
    29    32    33    1
    30    33    34    2
    31     7     8    1
    32    12    13    1
    33    13    14    1
    34    18    19   ar
    35    19    20   ar
    36    20    15   ar
    37    14     9    1
    38     8     5    1
    39    34    26    1
    40    34    29    1
    41     1     4    1
    42    24    25    1
@<TRIPOS>MOLECULE
*****
 38 42 0 0 0
SMALL
GASTEIGER

@<TRIPOS>ATOM
      1 N         137.4201  140.3494  157.3435 N.am    1  UNL1       -0.2999
      2 C         137.1498  141.7031  156.7566 C.2     1  UNL1        0.2701
      3 O         137.4846  142.9395  157.5370 O.2     1  UNL1       -0.2706
      4 H         137.2003  139.5379  156.8312 H       1  UNL1        0.1496
      5 N         138.8812  140.0665  160.6449 N.3     1  UNL1       -0.2711
      6 C         137.5050  139.8886  160.0753 C.3     1  UNL1        0.0933
      7 C         138.0253  140.2322  158.7110 C.3     1  UNL1        0.1035
      8 C         139.4014  140.4101  159.2807 C.3     1  UNL1        0.0933
      9 C         140.6968  139.7149  164.7473 C.3     1  UNL1        0.0240
     10 C         140.5400  138.4944  163.8894 C.3     1  UNL1        0.0058
     11 C         139.9348  138.6117  162.5220 C.3     1  UNL1        0.0163
     12 C         139.4864  139.9493  162.0124 C.3     1  UNL1        0.0576
     13 C         139.6432  141.1697  162.8703 C.3     1  UNL1        0.0163
     14 C         140.2485  141.0525  164.2377 C.3     1  UNL1        0.0058
     15 C         142.5124  139.3630  168.8497 C.ar    1  UNL1        0.2250
     16 C         141.1856  140.0398  168.6724 C.ar    1  UNL1        0.0574
     17 C         140.5804  140.1571  167.3048 C.ar    1  UNL1        0.0020
     18 C         141.3021  139.5976  166.1147 C.ar    1  UNL1       -0.0031
     19 C         142.6289  138.9208  166.2922 C.ar    1  UNL1        0.0977
     20 N         143.2340  138.8035  167.6597 N.ar    1  UNL1       -0.2105
     21 C         142.9240  140.3446  171.2198 C.3     1  UNL1        0.2542
     22 O         143.1175  139.2458  170.2173 O.3     1  UNL1       -0.4561
     23 C         136.5445  141.8203  155.3891 C.3     1  UNL1        0.2850
     24 N         135.0545  141.8940  155.2322 N.pl3   1  UNL1       -0.2091
     25 H         134.6476  142.6453  154.7431 H       1  UNL1        0.2928
     26 C         134.1845  140.8230  155.8204 C.2     1  UNL1        0.3493
     27 N         134.6615  139.5659  156.4854 N.2     1  UNL1        0.0798
     28 N         133.4566  138.7871  156.9229 N.2     1  UNL1       -0.0381
     29 C         132.2348  139.5627  156.5283 C.2     1  UNL1        0.1169
     30 C         130.7708  139.2858  156.7013 C.3     1  UNL1        0.0759
     31 C         129.7567  140.2672  156.1930 C.2     1  UNL1       -0.0158
     32 C         130.2067  141.5255  155.5116 C.2     1  UNL1        0.0678
     33 C         131.6707  141.8024  155.3385 C.2     1  UNL1        0.0123
     34 C         132.6847  140.8210  155.8469 C.2     1  UNL1        0.1019
     35 C         129.1925  142.5069  155.0033 C.3     1  UNL1        0.4183
     36 F         128.1783  143.4883  154.4950 F       1  UNL1       -0.1659
     37 F         130.1799  143.0018  153.9884 F       1  UNL1       -0.1659
     38 F         128.2050  142.0121  156.0181 F       1  UNL1       -0.1659
@<TRIPOS>BOND
     1    21    22    1
     2    22    15    1
     3    15    16   ar
     4    16    17   ar
     5    17    18   ar
     6     9    18    1
     7     9    10    1
     8    10    11    1
     9    11    12    1
    10    12     5    1
    11     5     6    1
    12     6     7    1
    13     7     1    1
    14     1     2   am
    15     2     3    2
    16     2    23    1
    17    23    24    1
    18    24    26    1
    19    26    27    2
    20    27    28    1
    21    28    29    2
    22    29    30    1
    23    30    31    1
    24    31    32    2
    25    32    35    1
    26    35    36    1
    27    35    37    1
    28    35    38    1
    29    32    33    1
    30    33    34    2
    31     7     8    1
    32    12    13    1
    33    13    14    1
    34    18    19   ar
    35    19    20   ar
    36    20    15   ar
    37    14     9    1
    38     8     5    1
    39    34    26    1
    40    34    29    1
    41     1     4    1
    42    24    25    1
@<TRIPOS>MOLECULE
*****
 38 42 0 0 0
SMALL
GASTEIGER

@<TRIPOS>ATOM
      1 N         143.1676  138.3143  156.8096 N.am    1  UNL1       -0.2999
      2 C         141.9648  137.7460  156.1167 C.2     1  UNL1        0.2701
      3 O         140.7124  137.4690  156.8942 O.2     1  UNL1       -0.2706
      4 H         143.9897  138.4961  156.2993 H       1  UNL1        0.1496
      5 N         143.0478  139.0174  160.3601 N.3     1  UNL1       -0.2711
      6 C         143.3895  139.8094  159.1329 C.3     1  UNL1        0.0933
      7 C         143.1180  138.6055  158.2803 C.3     1  UNL1        0.1035
      8 C         142.7763  137.8135  159.5074 C.3     1  UNL1        0.0933
      9 C         142.8988  139.8910  164.7719 C.3     1  UNL1        0.0240
     10 C         144.1177  139.2527  164.1744 C.3     1  UNL1        0.0058
     11 C         144.1673  138.9615  162.7039 C.3     1  UNL1        0.0163
     12 C         142.9981  139.3086  161.8307 C.3     1  UNL1        0.0576
     13 C         141.7793  139.9469  162.4281 C.3     1  UNL1        0.0163
     14 C         141.7296  140.2381  163.8988 C.3     1  UNL1        0.0058
     15 C         142.7502  140.7646  169.1838 C.ar    1  UNL1        0.2250
     16 C         142.6770  141.8891  168.1937 C.ar    1  UNL1        0.0574
     17 C         142.7266  141.5978  166.7231 C.ar    1  UNL1        0.0020
     18 C         142.8493  140.1821  166.2425 C.ar    1  UNL1       -0.0031
     19 C         142.9224  139.0577  167.2327 C.ar    1  UNL1        0.0977
     20 N         142.8728  139.3490  168.7033 N.ar    1  UNL1       -0.2105
     21 C         141.6195  141.9356  171.2087 C.3     1  UNL1        0.2542
     22 O         142.7006  141.0559  170.6544 O.3     1  UNL1       -0.4561
     23 C         142.0145  137.4548  154.6460 C.3     1  UNL1        0.2850
     24 N         142.7025  136.2179  154.1492 N.pl3   1  UNL1       -0.2091
     25 H         142.9348  136.1329  153.1962 H       1  UNL1        0.2928
     26 C         143.0366  135.1105  155.1042 C.2     1  UNL1        0.3493
     27 N         143.9742  135.2056  156.2712 N.2     1  UNL1        0.0798
     28 N         144.0088  133.8675  156.9481 N.2     1  UNL1       -0.0381
     29 C         143.0925  132.9455  156.1996 C.2     1  UNL1        0.1169
     30 C         142.7277  131.5056  156.4084 C.3     1  UNL1        0.0759
     31 C         141.7621  130.8340  155.4776 C.2     1  UNL1       -0.0158
     32 C         141.1612  131.6023  154.3380 C.2     1  UNL1        0.0678
     33 C         141.5260  133.0421  154.1291 C.2     1  UNL1        0.0123
     34 C         142.4917  133.7137  155.0599 C.2     1  UNL1        0.1019
     35 C         140.1955  130.9306  153.4072 C.3     1  UNL1        0.4183
     36 F         139.2299  130.2589  152.4764 F       1  UNL1       -0.1659
     37 F         141.1512  131.1338  152.2690 F       1  UNL1       -0.1659
     38 F         139.2399  130.7274  154.5453 F       1  UNL1       -0.1659
@<TRIPOS>BOND
     1    21    22    1
     2    22    15    1
     3    15    16   ar
     4    16    17   ar
     5    17    18   ar
     6     9    18    1
     7     9    10    1
     8    10    11    1
     9    11    12    1
    10    12     5    1
    11     5     6    1
    12     6     7    1
    13     7     1    1
    14     1     2   am
    15     2     3    2
    16     2    23    1
    17    23    24    1
    18    24    26    1
    19    26    27    2
    20    27    28    1
    21    28    29    2
    22    29    30    1
    23    30    31    1
    24    31    32    2
    25    32    35    1
    26    35    36    1
    27    35    37    1
    28    35    38    1
    29    32    33    1
    30    33    34    2
    31     7     8    1
    32    12    13    1
    33    13    14    1
    34    18    19   ar
    35    19    20   ar
    36    20    15   ar
    37    14     9    1
    38     8     5    1
    39    34    26    1
    40    34    29    1
    41     1     4    1
    42    24    25    1
@<TRIPOS>MOLECULE
*****
 38 42 0 0 0
SMALL
GASTEIGER

@<TRIPOS>ATOM
      1 N         139.9714  140.3443  163.2455 N.am    1  UNL1       -0.2999
      2 C         138.8640  139.3427  163.3882 C.2     1  UNL1        0.2701
      3 O         137.7653  139.2889  162.3684 O.2     1  UNL1       -0.2706
      4 H         140.6925  140.3795  163.9149 H       1  UNL1        0.1496
      5 N         139.9924  142.6327  160.4390 N.3     1  UNL1       -0.2711
      6 C         139.3574  142.6268  161.7979 C.3     1  UNL1        0.0933
      7 C         139.9801  141.2921  162.0830 C.3     1  UNL1        0.1035
      8 C         140.6151  141.2982  160.7241 C.3     1  UNL1        0.0933
      9 C         140.0186  145.4763  156.9514 C.3     1  UNL1        0.0240
     10 C         139.3700  144.1304  156.8170 C.3     1  UNL1        0.0058
     11 C         139.3613  143.1826  157.9795 C.3     1  UNL1        0.0163
     12 C         140.0011  143.5806  159.2765 C.3     1  UNL1        0.0576
     13 C         140.6497  144.9264  159.4109 C.3     1  UNL1        0.0163
     14 C         140.6584  145.8743  158.2484 C.3     1  UNL1        0.0058
     15 C         140.0444  148.3198  153.4638 C.ar    1  UNL1        0.2250
     16 C         139.2120  148.6247  154.6738 C.ar    1  UNL1        0.0574
     17 C         139.2035  147.6768  155.8363 C.ar    1  UNL1        0.0020
     18 C         140.0272  146.4241  155.7888 C.ar    1  UNL1       -0.0031
     19 C         140.8596  146.1193  154.5788 C.ar    1  UNL1        0.0977
     20 N         140.8682  147.0672  153.4162 N.ar    1  UNL1       -0.2105
     21 C         139.5690  150.6763  152.4785 C.3     1  UNL1        0.2542
     22 O         140.0530  149.2677  152.3012 O.3     1  UNL1       -0.4561
     23 C         138.8553  138.3948  164.5507 C.3     1  UNL1        0.2850
     24 N         139.2342  138.8815  165.9181 N.pl3   1  UNL1       -0.2091
     25 H         138.5910  138.8140  166.6604 H       1  UNL1        0.2928
     26 C         140.5931  139.4710  166.1545 C.2     1  UNL1        0.3493
     27 N         141.8424  139.1398  165.3932 N.2     1  UNL1        0.0798
     28 N         142.9626  139.9593  165.9620 N.2     1  UNL1       -0.0381
     29 C         142.4057  140.7969  167.0747 C.2     1  UNL1        0.1169
     30 C         143.0429  141.7954  167.9950 C.3     1  UNL1        0.0759
     31 C         142.2156  142.4922  169.0342 C.2     1  UNL1       -0.0158
     32 C         140.7511  142.1903  169.1532 C.2     1  UNL1        0.0678
     33 C         140.1139  141.1918  168.2330 C.2     1  UNL1        0.0123
     34 C         140.9412  140.4951  167.1938 C.2     1  UNL1        0.1019
     35 C         139.9238  142.8871  170.1926 C.3     1  UNL1        0.4183
     36 F         139.0965  143.5839  171.2318 F       1  UNL1       -0.1659
     37 F         139.0913  141.6505  170.3591 F       1  UNL1       -0.1659
     38 F         140.7562  144.1237  170.0261 F       1  UNL1       -0.1659
@<TRIPOS>BOND
     1    21    22    1
     2    22    15    1
     3    15    16   ar
     4    16    17   ar
     5    17    18   ar
     6     9    18    1
     7     9    10    1
     8    10    11    1
     9    11    12    1
    10    12     5    1
    11     5     6    1
    12     6     7    1
    13     7     1    1
    14     1     2   am
    15     2     3    2
    16     2    23    1
    17    23    24    1
    18    24    26    1
    19    26    27    2
    20    27    28    1
    21    28    29    2
    22    29    30    1
    23    30    31    1
    24    31    32    2
    25    32    35    1
    26    35    36    1
    27    35    37    1
    28    35    38    1
    29    32    33    1
    30    33    34    2
    31     7     8    1
    32    12    13    1
    33    13    14    1
    34    18    19   ar
    35    19    20   ar
    36    20    15   ar
    37    14     9    1
    38     8     5    1
    39    34    26    1
    40    34    29    1
    41     1     4    1
    42    24    25    1
@<TRIPOS>MOLECULE
*****
 38 42 0 0 0
SMALL
GASTEIGER

@<TRIPOS>ATOM
      1 N         143.0748  142.4668  162.2494 N.am    1  UNL1       -0.2999
      2 C         142.9659  143.9303  161.9392 C.2     1  UNL1        0.2701
      3 O         142.6816  144.3807  160.5369 O.2     1  UNL1       -0.2706
      4 H         143.2614  142.1713  163.1698 H       1  UNL1        0.1496
      5 N         142.6511  140.0208  159.6128 N.3     1  UNL1       -0.2711
      6 C         141.7245  140.8765  160.4246 C.3     1  UNL1        0.0933
      7 C         142.8993  141.4537  161.1573 C.3     1  UNL1        0.1035
      8 C         143.8259  140.5980  160.3454 C.3     1  UNL1        0.0933
      9 C         142.1248  136.9813  156.3364 C.3     1  UNL1        0.0240
     10 C         142.6630  136.5595  157.6715 C.3     1  UNL1        0.0058
     11 C         142.8384  137.5726  158.7636 C.3     1  UNL1        0.0163
     12 C         142.4757  139.0077  158.5206 C.3     1  UNL1        0.0576
     13 C         141.9376  139.4296  157.1856 C.3     1  UNL1        0.0163
     14 C         141.7622  138.4164  156.0934 C.3     1  UNL1        0.0058
     15 C         141.5987  133.9418  153.0601 C.ar    1  UNL1        0.2250
     16 C         141.7639  135.3928  152.7175 C.ar    1  UNL1        0.0574
     17 C         141.9392  136.4059  153.8097 C.ar    1  UNL1        0.0020
     18 C         141.9495  135.9681  155.2444 C.ar    1  UNL1       -0.0031
     19 C         141.7843  134.5171  155.5869 C.ar    1  UNL1        0.0977
     20 N         141.6089  133.5040  154.4947 N.ar    1  UNL1       -0.2105
     21 C         140.3986  131.8425  152.1100 C.3     1  UNL1        0.2542
     22 O         141.4233  132.9286  151.9680 O.3     1  UNL1       -0.4561
     23 C         143.1413  144.9435  163.0313 C.3     1  UNL1        0.2850
     24 N         141.9738  145.7707  163.4816 N.pl3   1  UNL1       -0.2091
     25 H         142.1256  146.6094  163.9744 H       1  UNL1        0.2928
     26 C         140.5750  145.3201  163.1810 C.2     1  UNL1        0.3493
     27 N         139.6234  145.9767  162.2253 N.2     1  UNL1        0.0798
     28 N         138.3425  145.1961  162.2370 N.2     1  UNL1       -0.0381
     29 C         138.5025  144.0572  163.1999 C.2     1  UNL1        0.1169
     30 C         137.5700  142.9603  163.6209 C.3     1  UNL1        0.0759
     31 C         138.0174  141.9400  164.6253 C.2     1  UNL1       -0.0158
     32 C         139.3971  142.0166  165.2087 C.2     1  UNL1        0.0678
     33 C         140.3296  143.1135  164.7877 C.2     1  UNL1        0.0123
     34 C         139.8822  144.1338  163.7834 C.2     1  UNL1        0.1019
     35 C         139.8444  140.9962  166.2131 C.3     1  UNL1        0.4183
     36 F         140.2917  139.9759  167.2175 F       1  UNL1       -0.1659
     37 F         141.1741  141.6823  166.3181 F       1  UNL1       -0.1659
     38 F         138.5147  140.3101  166.1082 F       1  UNL1       -0.1659
@<TRIPOS>BOND
     1    21    22    1
     2    22    15    1
     3    15    16   ar
     4    16    17   ar
     5    17    18   ar
     6     9    18    1
     7     9    10    1
     8    10    11    1
     9    11    12    1
    10    12     5    1
    11     5     6    1
    12     6     7    1
    13     7     1    1
    14     1     2   am
    15     2     3    2
    16     2    23    1
    17    23    24    1
    18    24    26    1
    19    26    27    2
    20    27    28    1
    21    28    29    2
    22    29    30    1
    23    30    31    1
    24    31    32    2
    25    32    35    1
    26    35    36    1
    27    35    37    1
    28    35    38    1
    29    32    33    1
    30    33    34    2
    31     7     8    1
    32    12    13    1
    33    13    14    1
    34    18    19   ar
    35    19    20   ar
    36    20    15   ar
    37    14     9    1
    38     8     5    1
    39    34    26    1
    40    34    29    1
    41     1     4    1
    42    24    25    1
