@<TRIPOS>MOLECULE
*****
 31 35 0 0 0
SMALL
GASTEIGER

@<TRIPOS>ATOM
      1 C         138.4999  144.5311  162.9241 C.ar    1  UNL1        0.1388
      2 C         139.0147  144.6672  164.3264 C.ar    1  UNL1        0.0400
      3 C         139.0717  143.4668  165.2242 C.ar    1  UNL1        0.0407
      4 C         138.6138  142.1305  164.7196 C.ar    1  UNL1        0.1479
      5 C         138.0990  141.9945  163.3173 C.ar    1  UNL1        0.0407
      6 C         138.0420  143.1948  162.4196 C.ar    1  UNL1        0.0400
      7 O         138.4429  145.7315  162.0263 O.3     1  UNL1       -0.4740
      8 C         139.7122  146.3572  161.5292 C.3     1  UNL1        0.2226
      9 C         140.7158  145.5276  160.7847 C.3     1  UNL1        0.1200
     10 C         142.8575  142.1701  162.8801 C.3     1  UNL1        0.0815
     11 C         142.0701  141.8950  161.6333 C.3     1  UNL1        0.0373
     12 C         141.3562  143.0141  160.9349 C.3     1  UNL1        0.0739
     13 N         141.4297  144.4083  161.4832 N.3     1  UNL1       -0.2695
     14 C         142.2171  144.6834  162.7299 C.3     1  UNL1        0.0739
     15 C         142.9310  143.5643  163.4284 C.3     1  UNL1        0.0373
     16 O         146.0875  141.7131  162.9659 O.2     1  UNL1       -0.2262
     17 C         145.0561  140.8408  163.6180 C.2     1  UNL1        0.4050
     18 O         145.3281  139.6054  164.4239 O.3     1  UNL1       -0.4326
     19 C         144.0116  139.0518  164.8826 C.3     1  UNL1        0.2316
     20 C         142.9259  139.9452  164.3601 C.3     1  UNL1        0.1440
     21 N         143.5713  141.0508  163.5785 N.am    1  UNL1       -0.2437
     22 O         138.6708  140.9301  165.6174 O.3     1  UNL1       -0.4313
     23 C         139.6816  140.8685  166.7240 C.ar    1  UNL1        0.2628
     24 N         140.9483  141.6676  166.8067 N.ar    1  UNL1       -0.2050
     25 C         141.6527  141.2899  168.0760 C.ar    1  UNL1        0.0910
     26 C         142.9436  141.7528  168.6834 C.ar    1  UNL1        0.0197
     27 C         143.4033  141.1832  169.9926 C.ar    1  UNL1        0.0016
     28 C         142.5719  140.1506  170.6945 C.ar    1  UNL1        0.0006
     29 C         141.2809  139.6876  170.0871 C.ar    1  UNL1        0.0081
     30 C         140.8213  140.2573  168.7778 C.ar    1  UNL1        0.0515
     31 S         139.6031  139.9969  167.9422 S.2     1  UNL1       -0.0283
@<TRIPOS>BOND
     1    16    17    2
     2    17    18    1
     3    18    19    1
     4    19    20    1
     5    20    21    1
     6    21    10    1
     7    10    11    1
     8    11    12    1
     9    12    13    1
    10    13     9    1
    11     9     8    1
    12     8     7    1
    13     7     1    1
    14     1     2   ar
    15     2     3   ar
    16     3     4   ar
    17     4    22    1
    18    22    23    1
    19    23    24   ar
    20    24    25   ar
    21    25    26   ar
    22    26    27   ar
    23    27    28   ar
    24    28    29   ar
    25    29    30   ar
    26    30    31   ar
    27     4     5   ar
    28     5     6   ar
    29    13    14    1
    30    14    15    1
    31    21    17   am
    32    15    10    1
    33     6     1   ar
    34    31    23   ar
    35    30    25   ar
@<TRIPOS>MOLECULE
*****
 31 35 0 0 0
SMALL
GASTEIGER

@<TRIPOS>ATOM
      1 C         143.7957  138.7859  161.6214 C.ar    1  UNL1        0.1388
      2 C         144.3864  139.4680  162.8195 C.ar    1  UNL1        0.0400
      3 C         143.7620  139.2843  164.1710 C.ar    1  UNL1        0.0407
      4 C         142.5468  138.4183  164.3242 C.ar    1  UNL1        0.1479
      5 C         141.9561  137.7361  163.1259 C.ar    1  UNL1        0.0407
      6 C         142.5805  137.9199  161.7745 C.ar    1  UNL1        0.0400
      7 O         144.4202  138.9697  160.2699 O.3     1  UNL1       -0.4740
      8 C         143.7481  139.8337  159.2444 C.3     1  UNL1        0.2226
      9 C         143.6841  141.3193  159.4412 C.3     1  UNL1        0.1200
     10 C         140.8549  143.0677  162.4725 C.3     1  UNL1        0.0815
     11 C         142.1821  143.7200  162.2215 C.3     1  UNL1        0.0373
     12 C         143.1252  143.1373  161.2111 C.3     1  UNL1        0.0739
     13 N         142.7410  141.9022  160.4516 N.3     1  UNL1       -0.2695
     14 C         141.4138  141.2498  160.7026 C.3     1  UNL1        0.0739
     15 C         140.4708  141.8325  161.7130 C.3     1  UNL1        0.0373
     16 O         137.7463  143.9036  161.9366 O.2     1  UNL1       -0.2262
     17 C         138.4829  144.0347  163.2366 C.2     1  UNL1        0.4050
     18 O         137.9201  144.5730  164.5185 O.3     1  UNL1       -0.4326
     19 C         139.0011  144.5216  165.5572 C.3     1  UNL1        0.2316
     20 C         140.2321  143.9514  164.9171 C.3     1  UNL1        0.1440
     21 N         139.9118  143.6505  163.4830 N.am    1  UNL1       -0.2437
     22 O         141.9223  138.2345  165.6755 O.3     1  UNL1       -0.4313
     23 C         141.9404  139.3580  166.6692 C.ar    1  UNL1        0.2628
     24 N         142.9597  139.5624  167.7506 N.ar    1  UNL1       -0.2050
     25 C         142.5917  140.8051  168.5057 C.ar    1  UNL1        0.0910
     26 C         143.2307  141.4962  169.6735 C.ar    1  UNL1        0.0197
     27 C         142.6230  142.7510  170.2267 C.ar    1  UNL1        0.0016
     28 C         141.3763  143.3148  169.6120 C.ar    1  UNL1        0.0006
     29 C         140.7372  142.6237  168.4442 C.ar    1  UNL1        0.0081
     30 C         141.3449  141.3688  167.8910 C.ar    1  UNL1        0.0515
     31 S         140.9425  140.4745  166.7560 S.2     1  UNL1       -0.0283
@<TRIPOS>BOND
     1    16    17    2
     2    17    18    1
     3    18    19    1
     4    19    20    1
     5    20    21    1
     6    21    10    1
     7    10    11    1
     8    11    12    1
     9    12    13    1
    10    13     9    1
    11     9     8    1
    12     8     7    1
    13     7     1    1
    14     1     2   ar
    15     2     3   ar
    16     3     4   ar
    17     4    22    1
    18    22    23    1
    19    23    24   ar
    20    24    25   ar
    21    25    26   ar
    22    26    27   ar
    23    27    28   ar
    24    28    29   ar
    25    29    30   ar
    26    30    31   ar
    27     4     5   ar
    28     5     6   ar
    29    13    14    1
    30    14    15    1
    31    21    17   am
    32    15    10    1
    33     6     1   ar
    34    31    23   ar
    35    30    25   ar
@<TRIPOS>MOLECULE
*****
 31 35 0 0 0
SMALL
GASTEIGER

@<TRIPOS>ATOM
      1 C         140.3695  137.8506  162.4022 C.ar    1  UNL1        0.1388
      2 C         139.8807  137.6077  163.7994 C.ar    1  UNL1        0.0400
      3 C         140.8231  137.7456  164.9583 C.ar    1  UNL1        0.0407
      4 C         142.2543  138.1263  164.7199 C.ar    1  UNL1        0.1479
      5 C         142.7431  138.3692  163.3227 C.ar    1  UNL1        0.0407
      6 C         141.8007  138.2313  162.1639 C.ar    1  UNL1        0.0400
      7 O         139.4271  137.7127  161.2433 O.3     1  UNL1       -0.4740
      8 C         138.0180  138.2138  161.3588 C.3     1  UNL1        0.2226
      9 C         137.7435  139.6884  161.3511 C.3     1  UNL1        0.1200
     10 C         140.8673  142.5666  162.8369 C.3     1  UNL1        0.0815
     11 C         140.8569  142.1489  161.3962 C.3     1  UNL1        0.0373
     12 C         139.8156  141.1896  160.9010 C.3     1  UNL1        0.0739
     13 N         138.7848  140.6478  161.8464 N.3     1  UNL1       -0.2695
     14 C         138.7952  141.0654  163.2870 C.3     1  UNL1        0.0739
     15 C         139.8365  142.0248  163.7823 C.3     1  UNL1        0.0373
     16 O         140.7236  145.8211  162.6441 O.2     1  UNL1       -0.2262
     17 C         141.8426  145.0219  163.2435 C.2     1  UNL1        0.4050
     18 O         143.0919  145.5783  163.8595 O.3     1  UNL1       -0.4326
     19 C         143.9301  144.4264  164.3288 C.3     1  UNL1        0.2316
     20 C         143.1988  143.1579  164.0029 C.3     1  UNL1        0.1440
     21 N         141.9087  143.5260  163.3321 N.am    1  UNL1       -0.2437
     22 O         143.1967  138.2642  165.8787 O.3     1  UNL1       -0.4313
     23 C         142.8901  139.2310  166.9838 C.ar    1  UNL1        0.2628
     24 N         142.9565  138.9398  168.4538 N.ar    1  UNL1       -0.2050
     25 C         142.5707  140.1877  169.1915 C.ar    1  UNL1        0.0910
     26 C         142.4576  140.4938  170.6555 C.ar    1  UNL1        0.0197
     27 C         142.0398  141.8623  171.1055 C.ar    1  UNL1        0.0016
     28 C         141.7351  142.9247  170.0914 C.ar    1  UNL1        0.0006
     29 C         141.8482  142.6186  168.6274 C.ar    1  UNL1        0.0081
     30 C         142.2660  141.2501  168.1774 C.ar    1  UNL1        0.0515
     31 S         142.4634  140.6589  166.8130 S.2     1  UNL1       -0.0283
@<TRIPOS>BOND
     1    16    17    2
     2    17    18    1
     3    18    19    1
     4    19    20    1
     5    20    21    1
     6    21    10    1
     7    10    11    1
     8    11    12    1
     9    12    13    1
    10    13     9    1
    11     9     8    1
    12     8     7    1
    13     7     1    1
    14     1     2   ar
    15     2     3   ar
    16     3     4   ar
    17     4    22    1
    18    22    23    1
    19    23    24   ar
    20    24    25   ar
    21    25    26   ar
    22    26    27   ar
    23    27    28   ar
    24    28    29   ar
    25    29    30   ar
    26    30    31   ar
    27     4     5   ar
    28     5     6   ar
    29    13    14    1
    30    14    15    1
    31    21    17   am
    32    15    10    1
    33     6     1   ar
    34    31    23   ar
    35    30    25   ar
@<TRIPOS>MOLECULE
*****
 31 35 0 0 0
SMALL
GASTEIGER

@<TRIPOS>ATOM
      1 C         138.3337  138.9064  162.6771 C.ar    1  UNL1        0.1388
      2 C         138.7232  137.6945  163.4705 C.ar    1  UNL1        0.0400
      3 C         138.7926  137.7684  164.9671 C.ar    1  UNL1        0.0407
      4 C         138.4724  139.0542  165.6702 C.ar    1  UNL1        0.1479
      5 C         138.0829  140.2661  164.8767 C.ar    1  UNL1        0.0407
      6 C         138.0135  140.1922  163.3801 C.ar    1  UNL1        0.0400
      7 O         138.2644  138.8325  161.1804 O.3     1  UNL1       -0.4740
      8 C         139.3346  138.1128  160.4146 C.3     1  UNL1        0.2226
      9 C         140.5588  138.8519  159.9619 C.3     1  UNL1        0.1200
     10 C         142.8622  141.3894  162.8782 C.3     1  UNL1        0.0815
     11 C         142.0153  142.0393  161.8244 C.3     1  UNL1        0.0373
     12 C         141.2475  141.1934  160.8523 C.3     1  UNL1        0.0739
     13 N         141.3266  139.6978  160.9340 N.3     1  UNL1       -0.2695
     14 C         142.1736  139.0480  161.9877 C.3     1  UNL1        0.0739
     15 C         142.9414  139.8938  162.9598 C.3     1  UNL1        0.0373
     16 O         146.1118  141.5497  163.1319 O.2     1  UNL1       -0.2262
     17 C         145.1237  142.3090  163.9669 C.2     1  UNL1        0.4050
     18 O         145.4558  143.2752  165.0651 O.3     1  UNL1       -0.4326
     19 C         144.1675  143.7987  165.6273 C.3     1  UNL1        0.2316
     20 C         143.0391  143.1560  164.8765 C.3     1  UNL1        0.1440
     21 N         143.6301  142.2353  163.8503 N.am    1  UNL1       -0.2437
     22 O         138.5417  139.1281  167.1668 O.3     1  UNL1       -0.4313
     23 C         139.6067  139.9514  167.8285 C.ar    1  UNL1        0.2628
     24 N         139.4734  140.6833  169.1310 N.ar    1  UNL1       -0.2050
     25 C         140.7764  141.3716  169.4114 C.ar    1  UNL1        0.0910
     26 C         141.2294  142.2379  170.5491 C.ar    1  UNL1        0.0197
     27 C         142.6210  142.7976  170.5576 C.ar    1  UNL1        0.0016
     28 C         143.5595  142.4911  169.4284 C.ar    1  UNL1        0.0006
     29 C         143.1065  141.6248  168.2907 C.ar    1  UNL1        0.0081
     30 C         141.7149  141.0651  168.2822 C.ar    1  UNL1        0.0515
     31 S         140.9921  140.1873  167.3039 S.2     1  UNL1       -0.0283
@<TRIPOS>BOND
     1    16    17    2
     2    17    18    1
     3    18    19    1
     4    19    20    1
     5    20    21    1
     6    21    10    1
     7    10    11    1
     8    11    12    1
     9    12    13    1
    10    13     9    1
    11     9     8    1
    12     8     7    1
    13     7     1    1
    14     1     2   ar
    15     2     3   ar
    16     3     4   ar
    17     4    22    1
    18    22    23    1
    19    23    24   ar
    20    24    25   ar
    21    25    26   ar
    22    26    27   ar
    23    27    28   ar
    24    28    29   ar
    25    29    30   ar
    26    30    31   ar
    27     4     5   ar
    28     5     6   ar
    29    13    14    1
    30    14    15    1
    31    21    17   am
    32    15    10    1
    33     6     1   ar
    34    31    23   ar
    35    30    25   ar
@<TRIPOS>MOLECULE
*****
 31 35 0 0 0
SMALL
GASTEIGER

@<TRIPOS>ATOM
      1 C         142.1640  137.8047  162.2557 C.ar    1  UNL1        0.1388
      2 C         142.6554  138.0044  163.6587 C.ar    1  UNL1        0.0400
      3 C         141.6745  138.2081  164.7752 C.ar    1  UNL1        0.0407
      4 C         140.2021  138.2121  164.4885 C.ar    1  UNL1        0.1479
      5 C         139.7107  138.0123  163.0854 C.ar    1  UNL1        0.0407
      6 C         140.6916  137.8086  161.9690 C.ar    1  UNL1        0.0400
      7 O         143.1449  137.6009  161.1393 O.3     1  UNL1       -0.4740
      8 C         144.0448  138.7243  160.7173 C.3     1  UNL1        0.2226
      9 C         143.4578  139.9837  160.1523 C.3     1  UNL1        0.1200
     10 C         140.7042  142.5063  162.6632 C.3     1  UNL1        0.0815
     11 C         142.0890  142.1963  163.1492 C.3     1  UNL1        0.0373
     12 C         143.0069  141.3554  162.3122 C.3     1  UNL1        0.0739
     13 N         142.5399  140.8246  160.9893 N.3     1  UNL1       -0.2695
     14 C         141.1551  141.1347  160.5033 C.3     1  UNL1        0.0739
     15 C         140.2373  141.9755  161.3403 C.3     1  UNL1        0.0373
     16 O         141.4528  145.3632  164.0515 O.2     1  UNL1       -0.2262
     17 C         140.1305  144.6604  164.1383 C.2     1  UNL1        0.4050
     18 O         138.9201  145.1473  164.8785 O.3     1  UNL1       -0.4326
     19 C         137.8279  144.1352  164.6978 C.3     1  UNL1        0.2316
     20 C         138.3633  143.0226  163.8459 C.3     1  UNL1        0.1440
     21 N         139.7864  143.3473  163.5002 N.am    1  UNL1       -0.2437
     22 O         139.2212  138.4158  165.6048 O.3     1  UNL1       -0.4313
     23 C         139.4536  139.4956  166.6197 C.ar    1  UNL1        0.2628
     24 N         139.1682  139.4006  168.0893 N.ar    1  UNL1       -0.2050
     25 C         139.5504  140.7062  168.7211 C.ar    1  UNL1        0.0910
     26 C         139.4909  141.1903  170.1396 C.ar    1  UNL1        0.0197
     27 C         139.9529  142.5764  170.4790 C.ar    1  UNL1        0.0016
     28 C         140.4745  143.4784  169.3999 C.ar    1  UNL1        0.0006
     29 C         140.5340  142.9943  167.9814 C.ar    1  UNL1        0.0081
     30 C         140.0720  141.6082  167.6421 C.ar    1  UNL1        0.0515
     31 S         140.0122  140.8600  166.3434 S.2     1  UNL1       -0.0283
@<TRIPOS>BOND
     1    16    17    2
     2    17    18    1
     3    18    19    1
     4    19    20    1
     5    20    21    1
     6    21    10    1
     7    10    11    1
     8    11    12    1
     9    12    13    1
    10    13     9    1
    11     9     8    1
    12     8     7    1
    13     7     1    1
    14     1     2   ar
    15     2     3   ar
    16     3     4   ar
    17     4    22    1
    18    22    23    1
    19    23    24   ar
    20    24    25   ar
    21    25    26   ar
    22    26    27   ar
    23    27    28   ar
    24    28    29   ar
    25    29    30   ar
    26    30    31   ar
    27     4     5   ar
    28     5     6   ar
    29    13    14    1
    30    14    15    1
    31    21    17   am
    32    15    10    1
    33     6     1   ar
    34    31    23   ar
    35    30    25   ar
@<TRIPOS>MOLECULE
*****
 31 35 0 0 0
SMALL
GASTEIGER

@<TRIPOS>ATOM
      1 C         142.8015  144.1252  161.7656 C.ar    1  UNL1        0.1388
      2 C         143.7750  143.0019  161.9664 C.ar    1  UNL1        0.0400
      3 C         144.2809  142.6847  163.3425 C.ar    1  UNL1        0.0407
      4 C         143.8133  143.4909  164.5177 C.ar    1  UNL1        0.1479
      5 C         142.8398  144.6144  164.3169 C.ar    1  UNL1        0.0407
      6 C         142.3339  144.9315  162.9409 C.ar    1  UNL1        0.0400
      7 O         142.2956  144.4424  160.3895 O.3     1  UNL1       -0.4740
      8 C         140.8429  144.7497  160.1769 C.3     1  UNL1        0.2226
      9 C         139.8747  143.6389  159.8967 C.3     1  UNL1        0.1200
     10 C         139.0758  140.5073  163.0280 C.3     1  UNL1        0.0815
     11 C         138.1403  141.6697  162.8740 C.3     1  UNL1        0.0373
     12 C         138.4066  142.7135  161.8303 C.3     1  UNL1        0.0739
     13 N         139.6083  142.5950  160.9406 N.3     1  UNL1       -0.2695
     14 C         140.5438  141.4326  161.0945 C.3     1  UNL1        0.0739
     15 C         140.2775  140.3888  162.1383 C.3     1  UNL1        0.0373
     16 O         139.6834  137.3134  162.7455 O.2     1  UNL1       -0.2262
     17 C         139.0888  137.9953  163.9419 C.2     1  UNL1        0.4050
     18 O         138.6690  137.3290  165.2185 O.3     1  UNL1       -0.4326
     19 C         138.1303  138.3851  166.1374 C.3     1  UNL1        0.2316
     20 C         138.2171  139.7043  165.4286 C.3     1  UNL1        0.1440
     21 N         138.8095  139.4634  164.0718 N.am    1  UNL1       -0.2437
     22 O         144.3191  143.1738  165.8938 O.3     1  UNL1       -0.4313
     23 C         143.4019  142.5531  166.9055 C.ar    1  UNL1        0.2628
     24 N         143.5621  142.6144  168.3956 N.ar    1  UNL1       -0.2050
     25 C         142.4227  141.8613  169.0157 C.ar    1  UNL1        0.0910
     26 C         142.0607  141.5872  170.4453 C.ar    1  UNL1        0.0197
     27 C         140.8342  140.7862  170.7680 C.ar    1  UNL1        0.0016
     28 C         139.9698  140.2594  169.6611 C.ar    1  UNL1        0.0006
     29 C         140.3319  140.5335  168.2315 C.ar    1  UNL1        0.0081
     30 C         141.5583  141.3345  167.9088 C.ar    1  UNL1        0.0515
     31 S         142.1635  141.7620  166.6046 S.2     1  UNL1       -0.0283
@<TRIPOS>BOND
     1    16    17    2
     2    17    18    1
     3    18    19    1
     4    19    20    1
     5    20    21    1
     6    21    10    1
     7    10    11    1
     8    11    12    1
     9    12    13    1
    10    13     9    1
    11     9     8    1
    12     8     7    1
    13     7     1    1
    14     1     2   ar
    15     2     3   ar
    16     3     4   ar
    17     4    22    1
    18    22    23    1
    19    23    24   ar
    20    24    25   ar
    21    25    26   ar
    22    26    27   ar
    23    27    28   ar
    24    28    29   ar
    25    29    30   ar
    26    30    31   ar
    27     4     5   ar
    28     5     6   ar
    29    13    14    1
    30    14    15    1
    31    21    17   am
    32    15    10    1
    33     6     1   ar
    34    31    23   ar
    35    30    25   ar
@<TRIPOS>MOLECULE
*****
 31 35 0 0 0
SMALL
GASTEIGER

@<TRIPOS>ATOM
      1 C         139.3121  138.8157  160.7785 C.ar    1  UNL1        0.1388
      2 C         138.1732  139.5274  161.4465 C.ar    1  UNL1        0.0400
      3 C         137.9060  139.3103  162.9065 C.ar    1  UNL1        0.0407
      4 C         138.7779  138.3814  163.6984 C.ar    1  UNL1        0.1479
      5 C         139.9168  137.6697  163.0303 C.ar    1  UNL1        0.0407
      6 C         140.1839  137.8868  161.5704 C.ar    1  UNL1        0.0400
      7 O         139.5792  139.0328  159.3184 O.3     1  UNL1       -0.4740
      8 C         140.8807  138.5881  158.7199 C.3     1  UNL1        0.2226
      9 C         142.0516  139.5250  158.6905 C.3     1  UNL1        0.1200
     10 C         143.2395  141.7593  162.4117 C.3     1  UNL1        0.0815
     11 C         142.1732  142.3121  161.5131 C.3     1  UNL1        0.0373
     12 C         141.7772  141.5674  160.2727 C.3     1  UNL1        0.0739
     13 N         142.4476  140.2698  159.9309 N.3     1  UNL1       -0.2695
     14 C         143.5139  139.7170  160.8295 C.3     1  UNL1        0.0739
     15 C         143.9098  140.4617  162.0699 C.3     1  UNL1        0.0373
     16 O         144.3710  144.8178  162.5337 O.2     1  UNL1       -0.2262
     17 C         144.1555  143.9099  163.7082 C.2     1  UNL1        0.4050
     18 O         144.4223  144.2484  165.1449 O.3     1  UNL1       -0.4326
     19 C         144.0670  143.0519  165.9768 C.3     1  UNL1        0.2316
     20 C         143.5807  141.9738  165.0542 C.3     1  UNL1        0.1440
     21 N         143.6354  142.5041  163.6521 N.am    1  UNL1       -0.2437
     22 O         138.5108  138.1643  165.1584 O.3     1  UNL1       -0.4313
     23 C         138.9611  139.1832  166.1629 C.ar    1  UNL1        0.2628
     24 N         138.7315  139.1226  167.6439 N.ar    1  UNL1       -0.2050
     25 C         139.3486  140.3435  168.2591 C.ar    1  UNL1        0.0910
     26 C         139.4331  140.8183  169.6795 C.ar    1  UNL1        0.0197
     27 C         140.1286  142.1082  169.9989 C.ar    1  UNL1        0.0016
     28 C         140.7398  142.9234  168.8980 C.ar    1  UNL1        0.0006
     29 C         140.6553  142.4487  167.4777 C.ar    1  UNL1        0.0081
     30 C         139.9598  141.1587  167.1582 C.ar    1  UNL1        0.0515
     31 S         139.7203  140.4416  165.8627 S.2     1  UNL1       -0.0283
@<TRIPOS>BOND
     1    16    17    2
     2    17    18    1
     3    18    19    1
     4    19    20    1
     5    20    21    1
     6    21    10    1
     7    10    11    1
     8    11    12    1
     9    12    13    1
    10    13     9    1
    11     9     8    1
    12     8     7    1
    13     7     1    1
    14     1     2   ar
    15     2     3   ar
    16     3     4   ar
    17     4    22    1
    18    22    23    1
    19    23    24   ar
    20    24    25   ar
    21    25    26   ar
    22    26    27   ar
    23    27    28   ar
    24    28    29   ar
    25    29    30   ar
    26    30    31   ar
    27     4     5   ar
    28     5     6   ar
    29    13    14    1
    30    14    15    1
    31    21    17   am
    32    15    10    1
    33     6     1   ar
    34    31    23   ar
    35    30    25   ar
@<TRIPOS>MOLECULE
*****
 31 35 0 0 0
SMALL
GASTEIGER

@<TRIPOS>ATOM
      1 C         139.3608  139.9963  167.7731 C.ar    1  UNL1        0.1388
      2 C         139.7551  141.2683  167.0827 C.ar    1  UNL1        0.0400
      3 C         139.2732  141.5459  165.6895 C.ar    1  UNL1        0.0407
      4 C         138.3971  140.5515  164.9869 C.ar    1  UNL1        0.1479
      5 C         138.0029  139.2796  165.6774 C.ar    1  UNL1        0.0407
      6 C         138.4847  139.0020  167.0705 C.ar    1  UNL1        0.0400
      7 O         139.8427  139.7187  169.1662 O.3     1  UNL1       -0.4740
      8 C         141.2378  140.0973  169.5667 C.3     1  UNL1        0.2226
      9 C         142.4073  139.6059  168.7662 C.3     1  UNL1        0.1200
     10 C         143.4929  141.6272  164.8951 C.3     1  UNL1        0.0815
     11 C         143.1692  140.1627  164.9115 C.3     1  UNL1        0.0373
     12 C         142.8073  139.4889  166.2018 C.3     1  UNL1        0.0739
     13 N         142.7691  140.2797  167.4758 N.3     1  UNL1       -0.2695
     14 C         143.0928  141.7443  167.4595 C.3     1  UNL1        0.0739
     15 C         143.4547  142.4180  166.1691 C.3     1  UNL1        0.0373
     16 O         142.3176  144.4769  163.8237 O.2     1  UNL1       -0.2262
     17 C         143.3145  143.6109  163.1122 C.2     1  UNL1        0.4050
     18 O         143.9462  143.9026  161.7834 O.3     1  UNL1       -0.4326
     19 C         144.8768  142.7731  161.4546 C.3     1  UNL1        0.2316
     20 C         144.8203  141.7832  162.5802 C.3     1  UNL1        0.1440
     21 N         143.8547  142.3010  163.6047 N.am    1  UNL1       -0.2437
     22 O         137.9152  140.8291  163.5938 O.3     1  UNL1       -0.4313
     23 C         138.7066  141.7291  162.6918 C.ar    1  UNL1        0.2628
     24 N         138.6786  143.2288  162.6973 N.ar    1  UNL1       -0.2050
     25 C         139.6197  143.7140  161.6348 C.ar    1  UNL1        0.0910
     26 C         140.0003  145.0934  161.1848 C.ar    1  UNL1        0.0197
     27 C         140.9905  145.2728  160.0725 C.ar    1  UNL1        0.0016
     28 C         141.6002  144.0729  159.4103 C.ar    1  UNL1        0.0006
     29 C         141.2196  142.6936  159.8603 C.ar    1  UNL1        0.0081
     30 C         140.2294  142.5141  160.9726 C.ar    1  UNL1        0.0515
     31 S         139.6651  141.2874  161.6258 S.2     1  UNL1       -0.0283
@<TRIPOS>BOND
     1    16    17    2
     2    17    18    1
     3    18    19    1
     4    19    20    1
     5    20    21    1
     6    21    10    1
     7    10    11    1
     8    11    12    1
     9    12    13    1
    10    13     9    1
    11     9     8    1
    12     8     7    1
    13     7     1    1
    14     1     2   ar
    15     2     3   ar
    16     3     4   ar
    17     4    22    1
    18    22    23    1
    19    23    24   ar
    20    24    25   ar
    21    25    26   ar
    22    26    27   ar
    23    27    28   ar
    24    28    29   ar
    25    29    30   ar
    26    30    31   ar
    27     4     5   ar
    28     5     6   ar
    29    13    14    1
    30    14    15    1
    31    21    17   am
    32    15    10    1
    33     6     1   ar
    34    31    23   ar
    35    30    25   ar
@<TRIPOS>MOLECULE
*****
 31 35 0 0 0
SMALL
GASTEIGER

@<TRIPOS>ATOM
      1 C         139.4882  140.4865  167.2237 C.ar    1  UNL1        0.1388
      2 C         138.8548  139.1527  166.9598 C.ar    1  UNL1        0.0400
      3 C         138.3472  138.8219  165.5875 C.ar    1  UNL1        0.0407
      4 C         138.4730  139.8249  164.4793 C.ar    1  UNL1        0.1479
      5 C         139.1065  141.1587  164.7433 C.ar    1  UNL1        0.0407
      6 C         139.6141  141.4895  166.1155 C.ar    1  UNL1        0.0400
      7 O         139.9958  140.8174  168.5959 O.3     1  UNL1       -0.4740
      8 C         141.0281  139.9436  169.2446 C.3     1  UNL1        0.2226
      9 C         142.4591  140.0174  168.8009 C.3     1  UNL1        0.1200
     10 C         143.4789  141.7359  164.7689 C.3     1  UNL1        0.0815
     11 C         143.4198  142.6298  165.9721 C.3     1  UNL1        0.0373
     12 C         143.0799  142.0570  167.3160 C.3     1  UNL1        0.0739
     13 N         142.7990  140.5903  167.4569 N.3     1  UNL1       -0.2695
     14 C         142.8581  139.6964  166.2537 C.3     1  UNL1        0.0739
     15 C         143.1980  140.2692  164.9098 C.3     1  UNL1        0.0373
     16 O         142.0916  144.3486  163.3908 O.2     1  UNL1       -0.2262
     17 C         143.1811  143.5097  162.7915 C.2     1  UNL1        0.4050
     18 O         143.8243  143.7244  161.4535 O.3     1  UNL1       -0.4326
     19 C         144.8594  142.6563  161.2600 C.3     1  UNL1        0.2316
     20 C         144.8561  141.7814  162.4784 C.3     1  UNL1        0.1440
     21 N         143.8188  142.3088  163.4249 N.am    1  UNL1       -0.2437
     22 O         137.9654  139.4941  163.1071 O.3     1  UNL1       -0.4313
     23 C         138.9309  139.1354  162.0166 C.ar    1  UNL1        0.2628
     24 N         138.6280  139.0981  160.5480 N.ar    1  UNL1       -0.2050
     25 C         139.8787  138.6907  159.8269 C.ar    1  UNL1        0.0910
     26 C         140.1768  138.4873  158.3710 C.ar    1  UNL1        0.0197
     27 C         141.5508  138.0694  157.9381 C.ar    1  UNL1        0.0016
     28 C         142.6266  137.8548  158.9611 C.ar    1  UNL1        0.0006
     29 C         142.3285  138.0582  160.4170 C.ar    1  UNL1        0.0081
     30 C         140.9545  138.4761  160.8499 C.ar    1  UNL1        0.0515
     31 S         140.3687  138.7509  162.2032 S.2     1  UNL1       -0.0283
@<TRIPOS>BOND
     1    16    17    2
     2    17    18    1
     3    18    19    1
     4    19    20    1
     5    20    21    1
     6    21    10    1
     7    10    11    1
     8    11    12    1
     9    12    13    1
    10    13     9    1
    11     9     8    1
    12     8     7    1
    13     7     1    1
    14     1     2   ar
    15     2     3   ar
    16     3     4   ar
    17     4    22    1
    18    22    23    1
    19    23    24   ar
    20    24    25   ar
    21    25    26   ar
    22    26    27   ar
    23    27    28   ar
    24    28    29   ar
    25    29    30   ar
    26    30    31   ar
    27     4     5   ar
    28     5     6   ar
    29    13    14    1
    30    14    15    1
    31    21    17   am
    32    15    10    1
    33     6     1   ar
    34    31    23   ar
    35    30    25   ar
