@<TRIPOS>MOLECULE
*****
 59 63 0 0 0
SMALL
GASTEIGER

@<TRIPOS>ATOM
      1 C         140.8030  143.3310  157.5935 C.3     1  UNL1        0.2066
      2 O         140.4084  144.3801  158.5903 O.3     1  UNL1       -0.4483
      3 C         140.2850  144.9549  159.9703 C.2     1  UNL1        0.3235
      4 O         139.6205  146.2768  159.7232 O.2     1  UNL1       -0.2496
      5 C         140.4574  144.9413  161.4602 C.3     1  UNL1        0.1563
      6 C         139.8696  146.2571  161.8763 C.3     1  UNL1        0.0196
      7 C         140.8914  144.3422  162.7651 C.2     1  UNL1        0.1629
      8 O         140.4967  145.3914  163.7618 O.2     1  UNL1       -0.2954
      9 C         141.5010  143.2761  163.6264 C.3     1  UNL1        0.0877
     10 C         141.3777  143.8509  165.0064 C.3     1  UNL1        0.0104
     11 C         142.1656  141.9542  163.8735 C.3     1  UNL1        0.1493
     12 C         142.7534  140.6384  163.4576 C.3     1  UNL1        0.1186
     13 C         142.8281  140.8267  164.9438 C.3     1  UNL1        0.0322
     14 C         143.1481  139.5892  162.4608 C.3     1  UNL1        0.0370
     15 C         143.2714  139.0144  161.0809 C.3     1  UNL1        0.0601
     16 C         143.9359  137.6926  161.3280 C.3     1  UNL1        0.0078
     17 C         143.0990  139.0280  159.5909 C.2     1  UNL1        0.1516
     18 O         143.6868  137.7122  159.1748 O.2     1  UNL1       -0.2960
     19 C         142.6650  139.6271  158.2860 C.3     1  UNL1        0.0794
     20 C         143.0597  138.5779  157.2893 C.3     1  UNL1        0.0096
     21 C         142.0554  140.6932  157.4247 C.3     1  UNL1        0.1254
     22 N         142.2368  140.0110  156.1012 N.am    1  UNL1       -0.2437
     23 C         141.6844  140.9112  155.0360 C.2     1  UNL1        0.4049
     24 O         141.6593  140.6234  153.5641 O.2     1  UNL1       -0.2262
     25 O         141.1616  142.1498  155.7013 O.3     1  UNL1       -0.4365
     26 C         141.3909  142.0151  157.1776 C.3     1  UNL1        0.1908
     27 C         140.7699  143.1175  156.3718 C.3     1  UNL1        0.0493
     28 C         138.9418  144.3480  156.0931 C.3     1  UNL1        0.0040
     29 C         140.3690  143.9301  156.2887 C.3     1  UNL1        0.0474
     30 O         143.3958  139.4601  164.1275 O.3     1  UNL1       -0.3535
     31 C         144.8867  139.4067  164.2833 C.3     1  UNL1        0.1740
     32 O         142.3380  141.9407  165.3635 O.3     1  UNL1       -0.3283
     33 C         141.3151  141.2687  166.2308 C.3     1  UNL1        0.2643
     34 O         140.3430  140.2977  165.6291 O.3     1  UNL1       -0.3311
     35 C         139.3201  139.6257  166.4964 C.3     1  UNL1        0.1194
     36 C         138.3480  138.6546  165.8947 C.3     1  UNL1        0.0322
     37 C         139.2693  139.9248  167.9654 C.3     1  UNL1        0.0482
     38 C         140.2414  140.8959  168.5671 C.3     1  UNL1        0.0921
     39 C         141.2643  141.5678  167.6998 C.3     1  UNL1        0.1815
     40 O         142.2365  142.5389  168.3015 O.3     1  UNL1       -0.3783
     41 H         142.0681  142.6170  169.2536 H       1  UNL1        0.2106
     42 N         140.1907  141.1949  170.0362 N.3     1  UNL1       -0.2692
     43 C         139.6822  142.5227  170.5140 C.3     1  UNL1        0.0897
     44 C         140.6483  140.1662  171.0272 C.3     1  UNL1        0.0897
     45 C         142.8610  138.6649  155.8814 C.3     1  UNL1        0.0969
     46 C         142.0037  137.4931  155.5047 C.3     1  UNL1        0.0236
     47 C         140.6719  137.2948  156.1658 C.3     1  UNL1        0.0263
     48 C         139.4964  138.1283  155.7495 C.3     1  UNL1        0.1077
     49 N         138.9252  139.1441  156.6940 N.ar    1  UNL1       -0.3079
     50 C         138.1802  140.3871  156.3069 C.ar    1  UNL1        0.1785
     51 N         137.7933  141.1063  157.5651 N.ar    1  UNL1       -0.2238
     52 C         138.2993  140.3078  158.7298 C.ar    1  UNL1        0.1017
     53 C         138.9988  139.0950  158.1914 C.ar    1  UNL1        0.0965
     54 C         138.1345  140.6602  160.1784 C.ar    1  UNL1        0.0383
     55 C         138.1394  142.0980  160.6058 C.ar    1  UNL1        0.0047
     56 C         137.9747  142.4504  162.0545 C.ar    1  UNL1        0.0207
     57 C         137.8051  141.3650  163.0759 C.ar    1  UNL1        0.0989
     58 N         137.8002  139.9272  162.6485 N.ar    1  UNL1       -0.2423
     59 C         137.9649  139.5747  161.1998 C.ar    1  UNL1        0.1004
@<TRIPOS>BOND
     1    28    29    1
     2     1    29    1
     3     1     2    1
     4     2     3    1
     5     3     4    2
     6     3     5    1
     7     5     6    1
     8     5     7    1
     9     7     8    2
    10     7     9    1
    11     9    10    1
    12     9    11    1
    13    11    32    1
    14    33    32    1
    15    33    34    1
    16    34    35    1
    17    35    36    1
    18    35    37    1
    19    37    38    1
    20    38    42    1
    21    42    43    1
    22    42    44    1
    23    38    39    1
    24    39    40    1
    25    11    12    1
    26    12    13    1
    27    12    30    1
    28    30    31    1
    29    12    14    1
    30    14    15    1
    31    15    16    1
    32    15    17    1
    33    17    18    2
    34    17    19    1
    35    19    20    1
    36    19    21    1
    37    21    22    1
    38    22    45    1
    39    45    46    1
    40    46    47    1
    41    47    48    1
    42    48    49    1
    43    49    50   ar
    44    50    51   ar
    45    51    52   ar
    46    52    54    1
    47    54    55   ar
    48    55    56   ar
    49    56    57   ar
    50    57    58   ar
    51    58    59   ar
    52    52    53   ar
    53    22    23   am
    54    23    24    2
    55    23    25    1
    56    25    26    1
    57    26    27    1
    58    26     1    1
    59    39    33    1
    60    26    21    1
    61    53    49   ar
    62    59    54   ar
    63    40    41    1
@<TRIPOS>MOLECULE
*****
 59 63 0 0 0
SMALL
GASTEIGER

@<TRIPOS>ATOM
      1 C         142.0365  140.3769  157.2543 C.3     1  UNL1        0.2066
      2 O         142.6659  139.3685  158.1692 O.3     1  UNL1       -0.4483
      3 C         143.1300  138.8553  159.5001 C.2     1  UNL1        0.3235
      4 O         143.7078  137.5140  159.1576 O.2     1  UNL1       -0.2496
      5 C         143.3370  138.9390  160.9833 C.3     1  UNL1        0.1563
      6 C         144.0069  137.6351  161.3011 C.3     1  UNL1        0.0196
      7 C         143.2459  139.6030  162.3253 C.2     1  UNL1        0.1629
      8 O         143.8752  138.5946  163.2401 O.2     1  UNL1       -0.2954
      9 C         142.8747  140.7159  163.2600 C.3     1  UNL1        0.0877
     10 C         143.3388  140.2027  164.5909 C.3     1  UNL1        0.0104
     11 C         142.2969  142.0572  163.6025 C.3     1  UNL1        0.1493
     12 C         141.6270  143.3612  163.2849 C.3     1  UNL1        0.1186
     13 C         141.9271  143.2417  164.7497 C.3     1  UNL1        0.0322
     14 C         140.9976  144.3696  162.3699 C.3     1  UNL1        0.0370
     15 C         140.5335  144.8827  161.0392 C.3     1  UNL1        0.0601
     16 C         139.9557  146.2240  161.3816 C.3     1  UNL1        0.0078
     17 C         140.3265  144.7990  159.5559 C.2     1  UNL1        0.1516
     18 O         139.6566  146.1029  159.2381 O.2     1  UNL1       -0.2960
     19 C         140.4176  144.1350  158.2139 C.3     1  UNL1        0.0794
     20 C         139.7883  145.1434  157.2991 C.3     1  UNL1        0.0096
     21 C         140.7889  143.0221  157.2792 C.3     1  UNL1        0.1254
     22 N         140.2830  143.6460  156.0123 N.am    1  UNL1       -0.2437
     23 C         140.5481  142.6904  154.8869 C.2     1  UNL1        0.4049
     24 O         140.2039  142.9107  153.4437 O.2     1  UNL1       -0.2262
     25 O         141.2178  141.4759  155.4582 O.3     1  UNL1       -0.4365
     26 C         141.3666  141.6809  156.9367 C.3     1  UNL1        0.1908
     27 C         141.7626  140.5341  156.0545 C.3     1  UNL1        0.0493
     28 C         141.6522  138.3007  155.7406 C.3     1  UNL1        0.0040
     29 C         142.1277  139.7129  155.9124 C.3     1  UNL1        0.0474
     30 O         141.1763  144.5778  164.0375 O.3     1  UNL1       -0.3535
     31 C         139.7494  144.6977  164.4841 C.3     1  UNL1        0.1740
     32 O         142.5039  142.1409  165.0858 O.3     1  UNL1       -0.3283
     33 C         141.4859  141.5561  166.0193 C.3     1  UNL1        0.2643
     34 O         140.3075  140.8076  165.4705 O.3     1  UNL1       -0.3311
     35 C         139.2894  140.2228  166.4040 C.3     1  UNL1        0.1194
     36 C         138.1110  139.4744  165.8553 C.3     1  UNL1        0.0322
     37 C         139.4497  140.3864  167.8865 C.3     1  UNL1        0.0482
     38 C         140.6281  141.1349  168.4353 C.3     1  UNL1        0.0921
     39 C         141.6462  141.7197  167.5017 C.3     1  UNL1        0.1815
     40 O         142.8246  142.4682  168.0506 O.3     1  UNL1       -0.3783
     41 H         142.7767  142.4812  169.0193 H       1  UNL1        0.2106
     42 N         140.7884  141.2985  169.9178 N.3     1  UNL1       -0.2692
     43 C         141.6598  140.3505  170.6870 C.3     1  UNL1        0.0897
     44 C         140.0773  142.4101  170.6308 C.3     1  UNL1        0.0897
     45 C         139.6271  144.9897  155.8921 C.3     1  UNL1        0.0969
     46 C         138.1339  145.0889  155.7898 C.3     1  UNL1        0.0236
     47 C         137.3840  144.1835  154.8582 C.3     1  UNL1        0.0263
     48 C         136.5463  143.0678  155.4092 C.3     1  UNL1        0.1077
     49 N         137.1888  141.9695  156.2035 N.ar    1  UNL1       -0.3079
     50 C         137.6234  140.6356  155.6725 C.ar    1  UNL1        0.1785
     51 N         138.2127  139.8539  156.8091 N.ar    1  UNL1       -0.2238
     52 C         138.1421  140.7047  158.0425 C.ar    1  UNL1        0.1017
     53 C         137.5094  142.0122  157.6682 C.ar    1  UNL1        0.0965
     54 C         138.6205  140.3161  159.4100 C.ar    1  UNL1        0.0383
     55 C         138.5012  141.2844  160.5494 C.ar    1  UNL1        0.0047
     56 C         138.9795  140.8958  161.9171 C.ar    1  UNL1        0.0207
     57 C         139.5771  139.5391  162.1452 C.ar    1  UNL1        0.0989
     58 N         139.6964  138.5708  161.0058 N.ar    1  UNL1       -0.2423
     59 C         139.2181  138.9594  159.6382 C.ar    1  UNL1        0.1004
@<TRIPOS>BOND
     1    28    29    1
     2     1    29    1
     3     1     2    1
     4     2     3    1
     5     3     4    2
     6     3     5    1
     7     5     6    1
     8     5     7    1
     9     7     8    2
    10     7     9    1
    11     9    10    1
    12     9    11    1
    13    11    32    1
    14    33    32    1
    15    33    34    1
    16    34    35    1
    17    35    36    1
    18    35    37    1
    19    37    38    1
    20    38    42    1
    21    42    43    1
    22    42    44    1
    23    38    39    1
    24    39    40    1
    25    11    12    1
    26    12    13    1
    27    12    30    1
    28    30    31    1
    29    12    14    1
    30    14    15    1
    31    15    16    1
    32    15    17    1
    33    17    18    2
    34    17    19    1
    35    19    20    1
    36    19    21    1
    37    21    22    1
    38    22    45    1
    39    45    46    1
    40    46    47    1
    41    47    48    1
    42    48    49    1
    43    49    50   ar
    44    50    51   ar
    45    51    52   ar
    46    52    54    1
    47    54    55   ar
    48    55    56   ar
    49    56    57   ar
    50    57    58   ar
    51    58    59   ar
    52    52    53   ar
    53    22    23   am
    54    23    24    2
    55    23    25    1
    56    25    26    1
    57    26    27    1
    58    26     1    1
    59    39    33    1
    60    26    21    1
    61    53    49   ar
    62    59    54   ar
    63    40    41    1
@<TRIPOS>MOLECULE
*****
 59 63 0 0 0
SMALL
GASTEIGER

@<TRIPOS>ATOM
      1 C         142.3691  141.3530  156.5736 C.3     1  UNL1        0.2066
      2 O         142.6799  140.0419  157.2329 O.3     1  UNL1       -0.4483
      3 C         142.7369  139.0923  158.3926 C.2     1  UNL1        0.3235
      4 O         143.3325  137.8575  157.7840 O.2     1  UNL1       -0.2496
      5 C         142.5289  138.6923  159.8232 C.3     1  UNL1        0.1563
      6 C         143.0319  137.2795  159.8513 C.3     1  UNL1        0.0196
      7 C         142.0970  138.9210  161.2414 C.2     1  UNL1        0.1629
      8 O         142.4078  137.6100  161.9005 O.2     1  UNL1       -0.2954
      9 C         141.5268  139.7333  162.3661 C.3     1  UNL1        0.0877
     10 C         141.5838  138.7837  163.5259 C.3     1  UNL1        0.0104
     11 C         140.9312  140.9682  162.9748 C.3     1  UNL1        0.1493
     12 C         140.4282  142.3810  162.9468 C.3     1  UNL1        0.1186
     13 C         140.3065  141.7830  164.3170 C.3     1  UNL1        0.0322
     14 C         140.1174  143.6921  162.2876 C.3     1  UNL1        0.0370
     15 C         140.0604  144.6417  161.1279 C.3     1  UNL1        0.0601
     16 C         139.4648  145.8765  161.7366 C.3     1  UNL1        0.0078
     17 C         140.2684  145.0417  159.6973 C.2     1  UNL1        0.1516
     18 O         139.7654  146.4546  159.6691 O.2     1  UNL1       -0.2960
     19 C         140.7003  144.8130  158.2791 C.3     1  UNL1        0.0794
     20 C         140.3895  146.1240  157.6199 C.3     1  UNL1        0.0096
     21 C         141.2705  144.0007  157.1543 C.3     1  UNL1        0.1254
     22 N         141.1601  145.0406  156.0789 N.am    1  UNL1       -0.2437
     23 C         141.6875  144.4485  154.8056 C.2     1  UNL1        0.4049
     24 O         141.7649  145.1406  153.4771 O.2     1  UNL1       -0.2262
     25 O         142.1238  143.0426  155.0941 O.3     1  UNL1       -0.4365
     26 C         141.8661  142.7659  156.5456 C.3     1  UNL1        0.1908
     27 C         142.4442  141.9025  155.4638 C.3     1  UNL1        0.0493
     28 C         144.1365  140.5045  154.8689 C.3     1  UNL1        0.0040
     29 C         142.8010  141.1243  155.1556 C.3     1  UNL1        0.0474
     30 O         139.8362  143.3570  163.9199 O.3     1  UNL1       -0.3535
     31 C         138.3472  143.5100  164.0168 C.3     1  UNL1        0.1740
     32 O         140.7232  140.5681  164.4054 O.3     1  UNL1       -0.3283
     33 C         141.5886  141.1539  165.4814 C.3     1  UNL1        0.2643
     34 O         142.7159  142.0746  165.1190 O.3     1  UNL1       -0.3311
     35 C         143.5814  142.6604  166.1950 C.3     1  UNL1        0.1194
     36 C         144.7087  143.5812  165.8327 C.3     1  UNL1        0.0322
     37 C         143.3195  142.3255  167.6335 C.3     1  UNL1        0.0482
     38 C         142.1922  141.4047  167.9960 C.3     1  UNL1        0.0921
     39 C         141.3267  140.8189  166.9199 C.3     1  UNL1        0.1815
     40 O         140.1994  139.8982  167.2824 O.3     1  UNL1       -0.3783
     41 H         140.1688  139.7880  168.2456 H       1  UNL1        0.2106
     42 N         141.9303  141.0698  169.4345 N.3     1  UNL1       -0.2692
     43 C         140.9666  141.8960  170.2335 C.3     1  UNL1        0.0897
     44 C         142.6322  139.9085  170.0739 C.3     1  UNL1        0.0897
     45 C         140.6176  146.4289  156.2472 C.3     1  UNL1        0.0969
     46 C         139.1401  146.6724  156.1600 C.3     1  UNL1        0.0236
     47 C         138.3926  146.3098  154.9111 C.3     1  UNL1        0.0263
     48 C         137.4917  145.1106  154.8977 C.3     1  UNL1        0.1077
     49 N         138.0621  143.7470  154.6425 N.ar    1  UNL1       -0.3079
     50 C         138.5705  143.2359  153.3271 C.ar    1  UNL1        0.1785
     51 N         139.0469  141.8280  153.5296 N.ar    1  UNL1       -0.2238
     52 C         138.8329  141.4690  154.9702 C.ar    1  UNL1        0.1017
     53 C         138.2243  142.6550  155.6580 C.ar    1  UNL1        0.0965
     54 C         139.1686  140.1548  155.6105 C.ar    1  UNL1        0.0383
     55 C         139.7469  139.0441  154.7846 C.ar    1  UNL1        0.0047
     56 C         140.0826  137.7298  155.4249 C.ar    1  UNL1        0.0207
     57 C         139.8401  137.5262  156.8911 C.ar    1  UNL1        0.0989
     58 N         139.2619  138.6368  157.7170 N.ar    1  UNL1       -0.2423
     59 C         138.9261  139.9511  157.0767 C.ar    1  UNL1        0.1004
@<TRIPOS>BOND
     1    28    29    1
     2     1    29    1
     3     1     2    1
     4     2     3    1
     5     3     4    2
     6     3     5    1
     7     5     6    1
     8     5     7    1
     9     7     8    2
    10     7     9    1
    11     9    10    1
    12     9    11    1
    13    11    32    1
    14    33    32    1
    15    33    34    1
    16    34    35    1
    17    35    36    1
    18    35    37    1
    19    37    38    1
    20    38    42    1
    21    42    43    1
    22    42    44    1
    23    38    39    1
    24    39    40    1
    25    11    12    1
    26    12    13    1
    27    12    30    1
    28    30    31    1
    29    12    14    1
    30    14    15    1
    31    15    16    1
    32    15    17    1
    33    17    18    2
    34    17    19    1
    35    19    20    1
    36    19    21    1
    37    21    22    1
    38    22    45    1
    39    45    46    1
    40    46    47    1
    41    47    48    1
    42    48    49    1
    43    49    50   ar
    44    50    51   ar
    45    51    52   ar
    46    52    54    1
    47    54    55   ar
    48    55    56   ar
    49    56    57   ar
    50    57    58   ar
    51    58    59   ar
    52    52    53   ar
    53    22    23   am
    54    23    24    2
    55    23    25    1
    56    25    26    1
    57    26    27    1
    58    26     1    1
    59    39    33    1
    60    26    21    1
    61    53    49   ar
    62    59    54   ar
    63    40    41    1
@<TRIPOS>MOLECULE
*****
 59 63 0 0 0
SMALL
GASTEIGER

@<TRIPOS>ATOM
      1 C         141.3806  143.9537  157.1913 C.3     1  UNL1        0.2066
      2 O         140.7360  144.8921  158.1679 O.3     1  UNL1       -0.4483
      3 C         140.2155  145.2908  159.5170 C.2     1  UNL1        0.3235
      4 O         139.7049  146.6812  159.2803 O.2     1  UNL1       -0.2496
      5 C         139.9223  145.0707  160.9714 C.3     1  UNL1        0.1563
      6 C         139.2812  146.3631  161.3821 C.3     1  UNL1        0.0196
      7 C         139.9145  144.2754  162.2433 C.2     1  UNL1        0.1629
      8 O         139.2698  145.2139  163.2198 O.2     1  UNL1       -0.2954
      9 C         140.1935  143.0624  163.0805 C.3     1  UNL1        0.0877
     10 C         139.6730  143.4611  164.4296 C.3     1  UNL1        0.0104
     11 C         140.7042  141.6721  163.3172 C.3     1  UNL1        0.1493
     12 C         141.3453  140.3796  162.9067 C.3     1  UNL1        0.1186
     13 C         140.9673  140.3671  164.3582 C.3     1  UNL1        0.0322
     14 C         141.9900  139.4411  161.9301 C.3     1  UNL1        0.0370
     15 C         142.5104  139.0424  160.5810 C.3     1  UNL1        0.0601
     16 C         143.0211  137.6520  160.8178 C.3     1  UNL1        0.0078
     17 C         142.8036  139.2625  159.1265 C.2     1  UNL1        0.1516
     18 O         143.4447  137.9702  158.7159 O.2     1  UNL1       -0.2960
     19 C         142.8115  140.0578  157.8547 C.3     1  UNL1        0.0794
     20 C         143.4561  139.1193  156.8782 C.3     1  UNL1        0.0096
     21 C         142.5324  141.2708  157.0175 C.3     1  UNL1        0.1254
     22 N         143.0871  140.7541  155.7232 N.am    1  UNL1       -0.2437
     23 C         142.9193  141.8251  154.6864 C.2     1  UNL1        0.4049
     24 O         143.3366  141.7335  153.2486 O.2     1  UNL1       -0.2262
     25 O         142.2609  143.0037  155.3401 O.3     1  UNL1       -0.4365
     26 C         142.0218  142.6612  156.7807 C.3     1  UNL1        0.1908
     27 C         141.7162  143.9037  155.9979 C.3     1  UNL1        0.0493
     28 C         140.1464  145.4610  155.4726 C.3     1  UNL1        0.0040
     29 C         141.3885  144.7489  155.9195 C.3     1  UNL1        0.0474
     30 O         141.7103  139.0780  163.5567 O.3     1  UNL1       -0.3535
     31 C         143.1056  138.8566  164.0608 C.3     1  UNL1        0.1740
     32 O         140.4110  141.4519  164.7717 O.3     1  UNL1       -0.3283
     33 C         141.4467  141.7847  165.8043 C.3     1  UNL1        0.2643
     34 O         142.6995  142.5065  165.4046 O.3     1  UNL1       -0.3311
     35 C         143.7353  142.8393  166.4373 C.3     1  UNL1        0.1194
     36 C         144.9880  143.5610  166.0376 C.3     1  UNL1        0.0322
     37 C         143.5184  142.4504  167.8696 C.3     1  UNL1        0.0482
     38 C         142.2656  141.7287  168.2694 C.3     1  UNL1        0.0921
     39 C         141.2298  141.3958  167.2367 C.3     1  UNL1        0.1815
     40 O         139.9771  140.6741  167.6365 O.3     1  UNL1       -0.3783
     41 H         139.9953  140.4988  168.5903 H       1  UNL1        0.2106
     42 N         142.0487  141.3397  169.7018 N.3     1  UNL1       -0.2692
     43 C         141.2165  142.2090  170.5971 C.3     1  UNL1        0.0897
     44 C         142.6641  140.0816  170.2387 C.3     1  UNL1        0.0897
     45 C         143.7017  139.4034  155.5040 C.3     1  UNL1        0.0969
     46 C         142.9985  138.3887  154.6520 C.3     1  UNL1        0.0236
     47 C         141.7141  137.7740  155.1236 C.3     1  UNL1        0.0263
     48 C         140.4191  138.5081  154.9392 C.3     1  UNL1        0.1077
     49 N         139.7699  139.1886  156.1077 N.ar    1  UNL1       -0.3079
     50 C         139.1164  140.5387  156.0901 C.ar    1  UNL1        0.1785
     51 N         138.6028  140.8230  157.4705 N.ar    1  UNL1       -0.2238
     52 C         138.9388  139.6486  158.3411 C.ar    1  UNL1        0.1017
     53 C         139.6601  138.6385  157.4988 C.ar    1  UNL1        0.0965
     54 C         138.6111  139.5090  159.7982 C.ar    1  UNL1        0.0383
     55 C         138.8849  138.2162  160.5079 C.ar    1  UNL1        0.0047
     56 C         138.5571  138.0765  161.9650 C.ar    1  UNL1        0.0207
     57 C         137.9556  139.2296  162.7124 C.ar    1  UNL1        0.0989
     58 N         137.6818  140.5223  162.0027 N.ar    1  UNL1       -0.2423
     59 C         138.0095  140.6621  160.5455 C.ar    1  UNL1        0.1004
@<TRIPOS>BOND
     1    28    29    1
     2     1    29    1
     3     1     2    1
     4     2     3    1
     5     3     4    2
     6     3     5    1
     7     5     6    1
     8     5     7    1
     9     7     8    2
    10     7     9    1
    11     9    10    1
    12     9    11    1
    13    11    32    1
    14    33    32    1
    15    33    34    1
    16    34    35    1
    17    35    36    1
    18    35    37    1
    19    37    38    1
    20    38    42    1
    21    42    43    1
    22    42    44    1
    23    38    39    1
    24    39    40    1
    25    11    12    1
    26    12    13    1
    27    12    30    1
    28    30    31    1
    29    12    14    1
    30    14    15    1
    31    15    16    1
    32    15    17    1
    33    17    18    2
    34    17    19    1
    35    19    20    1
    36    19    21    1
    37    21    22    1
    38    22    45    1
    39    45    46    1
    40    46    47    1
    41    47    48    1
    42    48    49    1
    43    49    50   ar
    44    50    51   ar
    45    51    52   ar
    46    52    54    1
    47    54    55   ar
    48    55    56   ar
    49    56    57   ar
    50    57    58   ar
    51    58    59   ar
    52    52    53   ar
    53    22    23   am
    54    23    24    2
    55    23    25    1
    56    25    26    1
    57    26    27    1
    58    26     1    1
    59    39    33    1
    60    26    21    1
    61    53    49   ar
    62    59    54   ar
    63    40    41    1
@<TRIPOS>MOLECULE
*****
 59 63 0 0 0
SMALL
GASTEIGER

@<TRIPOS>ATOM
      1 C         140.3438  142.9789  157.4135 C.3     1  UNL1        0.2066
      2 O         140.0730  144.1046  158.3672 O.3     1  UNL1       -0.4483
      3 C         140.1004  144.7758  159.7084 C.2     1  UNL1        0.3235
      4 O         139.4425  146.0958  159.4345 O.2     1  UNL1       -0.2496
      5 C         140.4205  144.8595  161.1713 C.3     1  UNL1        0.1563
      6 C         139.9052  146.2167  161.5487 C.3     1  UNL1        0.0196
      7 C         140.9699  144.3393  162.4665 C.2     1  UNL1        0.1629
      8 O         140.6991  145.4650  163.4201 O.2     1  UNL1       -0.2954
      9 C         141.6399  143.3180  163.3372 C.3     1  UNL1        0.0877
     10 C         141.6673  143.9892  164.6784 C.3     1  UNL1        0.0104
     11 C         142.2977  141.9981  163.6111 C.3     1  UNL1        0.1493
     12 C         142.8131  140.6408  163.2339 C.3     1  UNL1        0.1186
     13 C         143.0399  140.9284  164.6885 C.3     1  UNL1        0.0322
     14 C         143.0839  139.5151  162.2801 C.3     1  UNL1        0.0370
     15 C         143.0566  138.8439  160.9391 C.3     1  UNL1        0.0601
     16 C         143.7144  137.5240  161.2129 C.3     1  UNL1        0.0078
     17 C         142.7365  138.7602  159.4760 C.2     1  UNL1        0.1516
     18 O         143.2518  137.4030  159.0987 O.2     1  UNL1       -0.2960
     19 C         142.1870  139.2804  158.1808 C.3     1  UNL1        0.0794
     20 C         142.4578  138.1547  157.2272 C.3     1  UNL1        0.0096
     21 C         141.5170  140.3017  157.3101 C.3     1  UNL1        0.1254
     22 N         141.5508  139.5256  156.0269 N.am    1  UNL1       -0.2437
     23 C         140.9139  140.3658  154.9600 C.2     1  UNL1        0.4049
     24 O         140.7357  139.9786  153.5218 O.2     1  UNL1       -0.2262
     25 O         140.4864  141.6613  155.5838 O.3     1  UNL1       -0.4365
     26 C         140.8592  141.6216  157.0362 C.3     1  UNL1        0.1908
     27 C         140.1843  142.6832  156.2191 C.3     1  UNL1        0.0493
     28 C         140.1720  144.8697  155.6401 C.3     1  UNL1        0.0040
     29 C         139.7944  143.4991  156.1184 C.3     1  UNL1        0.0474
     30 O         143.4942  139.4937  163.9194 O.3     1  UNL1       -0.3535
     31 C         142.6912  138.3173  164.3898 C.3     1  UNL1        0.1740
     32 O         142.6179  142.0818  165.0741 O.3     1  UNL1       -0.3283
     33 C         141.7118  141.4336  166.0784 C.3     1  UNL1        0.2643
     34 O         140.5020  140.6758  165.6180 O.3     1  UNL1       -0.3311
     35 C         139.5958  140.0275  166.6223 C.3     1  UNL1        0.1194
     36 C         138.3860  139.2697  166.1618 C.3     1  UNL1        0.0322
     37 C         139.8994  140.1371  168.0872 C.3     1  UNL1        0.0482
     38 C         141.1093  140.8949  168.5477 C.3     1  UNL1        0.0921
     39 C         142.0154  141.5432  167.5433 C.3     1  UNL1        0.1815
     40 O         143.2252  142.3010  168.0038 O.3     1  UNL1       -0.3783
     41 H         143.2739  142.2747  168.9723 H       1  UNL1        0.2106
     42 N         141.4129  141.0045  170.0126 N.3     1  UNL1       -0.2692
     43 C         140.6218  141.9433  170.8743 C.3     1  UNL1        0.0897
     44 C         142.5077  140.1751  170.6156 C.3     1  UNL1        0.0897
     45 C         142.1214  138.1506  155.8430 C.3     1  UNL1        0.0969
     46 C         141.2054  136.9757  155.6679 C.3     1  UNL1        0.0236
     47 C         141.5567  135.8890  154.6955 C.3     1  UNL1        0.0263
     48 C         141.2287  134.4608  155.0161 C.3     1  UNL1        0.1077
     49 N         142.1774  133.6399  155.8383 N.ar    1  UNL1       -0.3079
     50 C         143.3010  134.1695  156.6792 C.ar    1  UNL1        0.1785
     51 N         143.9871  133.0020  157.3245 N.ar    1  UNL1       -0.2238
     52 C         143.2875  131.7510  156.8824 C.ar    1  UNL1        0.1017
     53 C         142.1691  132.1452  155.9639 C.ar    1  UNL1        0.0965
     54 C         143.6439  130.3514  157.2877 C.ar    1  UNL1        0.0383
     55 C         144.7129  130.1169  158.3135 C.ar    1  UNL1        0.0047
     56 C         145.0693  128.7173  158.7189 C.ar    1  UNL1        0.0207
     57 C         144.3566  127.5523  158.0985 C.ar    1  UNL1        0.0989
     58 N         143.2876  127.7868  157.0727 N.ar    1  UNL1       -0.2423
     59 C         142.9312  129.1864  156.6673 C.ar    1  UNL1        0.1004
@<TRIPOS>BOND
     1    28    29    1
     2     1    29    1
     3     1     2    1
     4     2     3    1
     5     3     4    2
     6     3     5    1
     7     5     6    1
     8     5     7    1
     9     7     8    2
    10     7     9    1
    11     9    10    1
    12     9    11    1
    13    11    32    1
    14    33    32    1
    15    33    34    1
    16    34    35    1
    17    35    36    1
    18    35    37    1
    19    37    38    1
    20    38    42    1
    21    42    43    1
    22    42    44    1
    23    38    39    1
    24    39    40    1
    25    11    12    1
    26    12    13    1
    27    12    30    1
    28    30    31    1
    29    12    14    1
    30    14    15    1
    31    15    16    1
    32    15    17    1
    33    17    18    2
    34    17    19    1
    35    19    20    1
    36    19    21    1
    37    21    22    1
    38    22    45    1
    39    45    46    1
    40    46    47    1
    41    47    48    1
    42    48    49    1
    43    49    50   ar
    44    50    51   ar
    45    51    52   ar
    46    52    54    1
    47    54    55   ar
    48    55    56   ar
    49    56    57   ar
    50    57    58   ar
    51    58    59   ar
    52    52    53   ar
    53    22    23   am
    54    23    24    2
    55    23    25    1
    56    25    26    1
    57    26    27    1
    58    26     1    1
    59    39    33    1
    60    26    21    1
    61    53    49   ar
    62    59    54   ar
    63    40    41    1
@<TRIPOS>MOLECULE
*****
 59 63 0 0 0
SMALL
GASTEIGER

@<TRIPOS>ATOM
      1 C         141.4802  139.8371  156.6184 C.3     1  UNL1        0.2066
      2 O         142.1239  138.8019  157.4925 O.3     1  UNL1       -0.4483
      3 C         142.6813  138.2805  158.7838 C.2     1  UNL1        0.3235
      4 O         143.1235  136.8939  158.4208 O.2     1  UNL1       -0.2496
      5 C         143.0419  138.3763  160.2366 C.3     1  UNL1        0.1563
      6 C         143.6446  137.0323  160.5202 C.3     1  UNL1        0.0196
      7 C         143.1343  139.0701  161.5633 C.2     1  UNL1        0.1629
      8 O         143.7780  138.0350  162.4372 O.2     1  UNL1       -0.2954
      9 C         142.9401  140.2247  162.5009 C.3     1  UNL1        0.0877
     10 C         143.4975  139.7034  163.7923 C.3     1  UNL1        0.0104
     11 C         142.4979  141.6114  162.8639 C.3     1  UNL1        0.1493
     12 C         141.8952  142.9554  162.5804 C.3     1  UNL1        0.1186
     13 C         142.3317  142.8413  164.0109 C.3     1  UNL1        0.0322
     14 C         141.2514  143.9906  161.7063 C.3     1  UNL1        0.0370
     15 C         140.6941  144.5120  160.4151 C.3     1  UNL1        0.0601
     16 C         140.2519  145.8986  160.7781 C.3     1  UNL1        0.0078
     17 C         140.3335  144.4162  158.9622 C.2     1  UNL1        0.1516
     18 O         139.7308  145.7602  158.6785 O.2     1  UNL1       -0.2960
     19 C         140.2411  143.7224  157.6355 C.3     1  UNL1        0.0794
     20 C         139.5974  144.7576  156.7615 C.3     1  UNL1        0.0096
     21 C         140.4353  142.5678  156.6978 C.3     1  UNL1        0.1254
     22 N         139.8509  143.2039  155.4715 N.am    1  UNL1       -0.2437
     23 C         139.9319  142.2104  154.3506 C.2     1  UNL1        0.4049
     24 O         139.4611  142.4287  152.9432 O.2     1  UNL1       -0.2262
     25 O         140.5664  140.9603  154.8842 O.3     1  UNL1       -0.4365
     26 C         140.8775  141.1812  156.3348 C.3     1  UNL1        0.1908
     27 C         141.0991  139.9919  155.4479 C.3     1  UNL1        0.0493
     28 C         142.6253  138.5985  154.6425 C.3     1  UNL1        0.0040
     29 C         141.3878  139.1433  155.2918 C.3     1  UNL1        0.0474
     30 O         141.6114  144.2160  163.3420 O.3     1  UNL1       -0.3535
     31 C         140.2397  144.4654  163.8953 C.3     1  UNL1        0.1740
     32 O         142.8585  141.7071  164.3168 O.3     1  UNL1       -0.3283
     33 C         141.8246  141.4252  165.3663 C.3     1  UNL1        0.2643
     34 O         140.5453  140.7367  164.9930 O.3     1  UNL1       -0.3311
     35 C         139.5113  140.4547  166.0425 C.3     1  UNL1        0.1194
     36 C         138.2320  139.7663  165.6692 C.3     1  UNL1        0.0322
     37 C         139.7567  140.8612  167.4654 C.3     1  UNL1        0.0482
     38 C         141.0360  141.5497  167.8388 C.3     1  UNL1        0.0921
     39 C         142.0700  141.8317  166.7892 C.3     1  UNL1        0.1815
     40 O         143.3493  142.5201  167.1625 O.3     1  UNL1       -0.3783
     41 H         143.3475  142.7124  168.1133 H       1  UNL1        0.2106
     42 N         141.2814  141.9562  169.2616 N.3     1  UNL1       -0.2692
     43 C         140.7803  143.2789  169.7608 C.3     1  UNL1        0.0897
     44 C         142.0279  141.0399  170.1853 C.3     1  UNL1        0.0897
     45 C         139.2849  144.5901  155.3818 C.3     1  UNL1        0.0969
     46 C         137.8589  144.7923  154.9626 C.3     1  UNL1        0.0236
     47 C         136.7772  143.9294  155.5419 C.3     1  UNL1        0.0263
     48 C         136.2616  142.7525  154.7680 C.3     1  UNL1        0.1077
     49 N         135.4056  141.7250  155.4474 N.ar    1  UNL1       -0.3079
     50 C         135.8777  140.6931  156.4283 C.ar    1  UNL1        0.1785
     51 N         134.6910  139.8794  156.8523 N.ar    1  UNL1       -0.2238
     52 C         133.4855  140.4085  156.1334 C.ar    1  UNL1        0.1017
     53 C         133.9271  141.5492  155.2652 C.ar    1  UNL1        0.0965
     54 C         132.0844  139.8883  156.2606 C.ar    1  UNL1        0.0383
     55 C         131.8464  138.4752  156.7038 C.ar    1  UNL1        0.0047
     56 C         130.4452  137.9548  156.8309 C.ar    1  UNL1        0.0207
     57 C         129.2821  138.8477  156.5148 C.ar    1  UNL1        0.0989
     58 N         129.5200  140.2608  156.0716 N.ar    1  UNL1       -0.2423
     59 C         130.9212  140.7811  155.9445 C.ar    1  UNL1        0.1004
@<TRIPOS>BOND
     1    28    29    1
     2     1    29    1
     3     1     2    1
     4     2     3    1
     5     3     4    2
     6     3     5    1
     7     5     6    1
     8     5     7    1
     9     7     8    2
    10     7     9    1
    11     9    10    1
    12     9    11    1
    13    11    32    1
    14    33    32    1
    15    33    34    1
    16    34    35    1
    17    35    36    1
    18    35    37    1
    19    37    38    1
    20    38    42    1
    21    42    43    1
    22    42    44    1
    23    38    39    1
    24    39    40    1
    25    11    12    1
    26    12    13    1
    27    12    30    1
    28    30    31    1
    29    12    14    1
    30    14    15    1
    31    15    16    1
    32    15    17    1
    33    17    18    2
    34    17    19    1
    35    19    20    1
    36    19    21    1
    37    21    22    1
    38    22    45    1
    39    45    46    1
    40    46    47    1
    41    47    48    1
    42    48    49    1
    43    49    50   ar
    44    50    51   ar
    45    51    52   ar
    46    52    54    1
    47    54    55   ar
    48    55    56   ar
    49    56    57   ar
    50    57    58   ar
    51    58    59   ar
    52    52    53   ar
    53    22    23   am
    54    23    24    2
    55    23    25    1
    56    25    26    1
    57    26    27    1
    58    26     1    1
    59    39    33    1
    60    26    21    1
    61    53    49   ar
    62    59    54   ar
    63    40    41    1
@<TRIPOS>MOLECULE
*****
 59 63 0 0 0
SMALL
GASTEIGER

@<TRIPOS>ATOM
      1 C         140.5886  142.9494  157.0752 C.3     1  UNL1        0.2066
      2 O         140.2563  144.0963  157.9831 O.3     1  UNL1       -0.4483
      3 C         140.1971  144.7986  159.3073 C.2     1  UNL1        0.3235
      4 O         139.5571  146.1103  158.9611 O.2     1  UNL1       -0.2496
      5 C         140.4228  144.9170  160.7854 C.3     1  UNL1        0.1563
      6 C         139.8833  146.2814  161.0972 C.3     1  UNL1        0.0196
      7 C         140.8886  144.4282  162.1249 C.2     1  UNL1        0.1629
      8 O         140.5563  145.5751  163.0327 O.2     1  UNL1       -0.2954
      9 C         141.5022  143.4289  163.0603 C.3     1  UNL1        0.0877
     10 C         141.4431  144.1312  164.3844 C.3     1  UNL1        0.0104
     11 C         142.1422  142.1172  163.4064 C.3     1  UNL1        0.1493
     12 C         142.6818  140.7528  163.0947 C.3     1  UNL1        0.1186
     13 C         142.8147  141.0745  164.5537 C.3     1  UNL1        0.0322
     14 C         143.0141  139.6059  162.1867 C.3     1  UNL1        0.0370
     15 C         143.0732  138.9037  160.8627 C.3     1  UNL1        0.0601
     16 C         143.7132  137.5919  161.2088 C.3     1  UNL1        0.0078
     17 C         142.8476  138.7852  159.3845 C.2     1  UNL1        0.1516
     18 O         143.3871  137.4208  159.0726 O.2     1  UNL1       -0.2960
     19 C         142.3818  139.2740  158.0450 C.3     1  UNL1        0.0794
     20 C         142.7140  138.1271  157.1372 C.3     1  UNL1        0.0096
     21 C         141.7681  140.2732  157.1096 C.3     1  UNL1        0.1254
     22 N         141.8847  139.4676  155.8496 N.am    1  UNL1       -0.2437
     23 C         141.3167  140.2814  154.7249 C.2     1  UNL1        0.4049
     24 O         141.2313  139.8605  153.2876 O.2     1  UNL1       -0.2262
     25 O         140.8492  141.5900  155.2896 O.3     1  UNL1       -0.4365
     26 C         141.1281  141.5850  156.7635 C.3     1  UNL1        0.1908
     27 C         140.5061  142.6257  155.8803 C.3     1  UNL1        0.0493
     28 C         140.4974  144.8130  155.2673 C.3     1  UNL1        0.0040
     29 C         140.1228  143.4382  155.7358 C.3     1  UNL1        0.0474
     30 O         143.3185  139.6234  163.8490 O.3     1  UNL1       -0.3535
     31 C         142.5016  138.4276  164.2397 C.3     1  UNL1        0.1740
     32 O         142.3679  142.2356  164.8846 O.3     1  UNL1       -0.3283
     33 C         141.4941  141.4780  165.8397 C.3     1  UNL1        0.2643
     34 O         140.2296  140.8357  165.3513 O.3     1  UNL1       -0.3311
     35 C         139.3558  140.0780  166.3065 C.3     1  UNL1        0.1194
     36 C         138.0913  139.4358  165.8182 C.3     1  UNL1        0.0322
     37 C         139.7465  139.9625  167.7501 C.3     1  UNL1        0.0482
     38 C         141.0111  140.6047  168.2386 C.3     1  UNL1        0.0921
     39 C         141.8849  141.3624  167.2833 C.3     1  UNL1        0.1815
     40 O         143.1494  142.0046  167.7718 O.3     1  UNL1       -0.3783
     41 H         143.2520  141.8357  168.7214 H       1  UNL1        0.2106
     42 N         141.4018  140.4891  169.6822 N.3     1  UNL1       -0.2692
     43 C         140.8386  141.4462  170.6905 C.3     1  UNL1        0.0897
     44 C         142.3558  139.4165  170.1174 C.3     1  UNL1        0.0897
     45 C         142.4670  138.0900  155.7347 C.3     1  UNL1        0.0969
     46 C         141.7432  136.9179  156.3284 C.3     1  UNL1        0.0236
     47 C         140.4429  136.4611  155.7363 C.3     1  UNL1        0.0263
     48 C         140.2633  136.4393  154.2473 C.3     1  UNL1        0.1077
     49 N         139.1343  137.1996  153.6169 N.ar    1  UNL1       -0.3079
     50 C         138.8145  137.2498  152.1523 C.ar    1  UNL1        0.1785
     51 N         137.6094  138.1244  151.9707 N.ar    1  UNL1       -0.2238
     52 C         137.1844  138.6146  153.3232 C.ar    1  UNL1        0.1017
     53 C         138.1269  138.0431  154.3406 C.ar    1  UNL1        0.0965
     54 C         136.0212  139.5178  153.6082 C.ar    1  UNL1        0.0383
     55 C         135.3295  139.4531  154.9375 C.ar    1  UNL1        0.0047
     56 C         134.1663  140.3563  155.2226 C.ar    1  UNL1        0.0207
     57 C         133.6948  141.3242  154.1782 C.ar    1  UNL1        0.0989
     58 N         134.3865  141.3890  152.8488 N.ar    1  UNL1       -0.2423
     59 C         135.5498  140.4858  152.5637 C.ar    1  UNL1        0.1004
@<TRIPOS>BOND
     1    28    29    1
     2     1    29    1
     3     1     2    1
     4     2     3    1
     5     3     4    2
     6     3     5    1
     7     5     6    1
     8     5     7    1
     9     7     8    2
    10     7     9    1
    11     9    10    1
    12     9    11    1
    13    11    32    1
    14    33    32    1
    15    33    34    1
    16    34    35    1
    17    35    36    1
    18    35    37    1
    19    37    38    1
    20    38    42    1
    21    42    43    1
    22    42    44    1
    23    38    39    1
    24    39    40    1
    25    11    12    1
    26    12    13    1
    27    12    30    1
    28    30    31    1
    29    12    14    1
    30    14    15    1
    31    15    16    1
    32    15    17    1
    33    17    18    2
    34    17    19    1
    35    19    20    1
    36    19    21    1
    37    21    22    1
    38    22    45    1
    39    45    46    1
    40    46    47    1
    41    47    48    1
    42    48    49    1
    43    49    50   ar
    44    50    51   ar
    45    51    52   ar
    46    52    54    1
    47    54    55   ar
    48    55    56   ar
    49    56    57   ar
    50    57    58   ar
    51    58    59   ar
    52    52    53   ar
    53    22    23   am
    54    23    24    2
    55    23    25    1
    56    25    26    1
    57    26    27    1
    58    26     1    1
    59    39    33    1
    60    26    21    1
    61    53    49   ar
    62    59    54   ar
    63    40    41    1
@<TRIPOS>MOLECULE
*****
 59 63 0 0 0
SMALL
GASTEIGER

@<TRIPOS>ATOM
      1 C         142.2765  139.2381  162.1634 C.3     1  UNL1        0.2066
      2 O         142.5190  138.2397  161.0706 O.3     1  UNL1       -0.4483
      3 C         142.6640  137.8093  159.6410 C.2     1  UNL1        0.3235
      4 O         142.9477  136.3413  159.7614 O.2     1  UNL1       -0.2496
      5 C         142.6827  138.0322  158.1578 C.3     1  UNL1        0.1563
      6 C         142.9748  136.6635  157.6181 C.3     1  UNL1        0.0196
      7 C         142.5715  138.8643  156.9147 C.2     1  UNL1        0.1629
      8 O         142.8140  137.8659  155.8219 O.2     1  UNL1       -0.2954
      9 C         142.3522  140.1408  156.1580 C.3     1  UNL1        0.0877
     10 C         142.4972  139.7104  154.7284 C.3     1  UNL1        0.0104
     11 C         142.0685  141.6088  156.0375 C.3     1  UNL1        0.1493
     12 C         141.7764  142.9776  156.5771 C.3     1  UNL1        0.1186
     13 C         141.8390  142.9811  155.0784 C.3     1  UNL1        0.0322
     14 C         141.5339  143.9760  157.6700 C.3     1  UNL1        0.0370
     15 C         141.3889  144.4064  159.0995 C.3     1  UNL1        0.0601
     16 C         141.1052  145.8744  158.9790 C.3     1  UNL1        0.0078
     17 C         141.3702  144.1834  160.5827 C.2     1  UNL1        0.1516
     18 O         141.0782  145.5522  161.1224 O.2     1  UNL1       -0.2960
     19 C         141.4815  143.3514  161.8259 C.3     1  UNL1        0.0794
     20 C         141.2390  144.3498  162.9186 C.3     1  UNL1        0.0096
     21 C         141.7007  142.0749  162.5825 C.3     1  UNL1        0.1254
     22 N         141.5332  142.6297  163.9661 N.am    1  UNL1       -0.2437
     23 C         141.7134  141.5046  164.9416 C.2     1  UNL1        0.4049
     24 O         141.6294  141.6110  166.4355 O.2     1  UNL1       -0.2262
     25 O         141.9923  140.2545  164.1610 O.3     1  UNL1       -0.4365
     26 C         141.9844  140.6069  162.7030 C.3     1  UNL1        0.1908
     27 C         142.2123  139.2988  163.4010 C.3     1  UNL1        0.0493
     28 C         141.4207  137.2852  163.6478 C.3     1  UNL1        0.0040
     29 C         142.3878  138.4060  163.4065 C.3     1  UNL1        0.0474
     30 O         141.5301  144.3490  156.0217 O.3     1  UNL1       -0.3535
     31 C         140.1258  144.8468  155.8482 C.3     1  UNL1        0.1740
     32 O         142.0872  141.8318  154.5543 O.3     1  UNL1       -0.3283
     33 C         143.0224  142.8425  153.9596 C.3     1  UNL1        0.2643
     34 O         142.4744  144.0515  153.2610 O.3     1  UNL1       -0.3311
     35 C         143.4096  145.0623  152.6663 C.3     1  UNL1        0.1194
     36 C         142.8617  146.2714  151.9678 C.3     1  UNL1        0.0322
     37 C         144.8929  144.8641  152.7700 C.3     1  UNL1        0.0482
     38 C         145.4409  143.6550  153.4686 C.3     1  UNL1        0.0921
     39 C         144.5056  142.6442  154.0633 C.3     1  UNL1        0.1815
     40 O         145.0536  141.4352  154.7619 O.3     1  UNL1       -0.3783
     41 H         146.0230  141.4606  154.7396 H       1  UNL1        0.2106
     42 N         146.9241  143.4567  153.5723 N.3     1  UNL1       -0.2692
     43 C         147.7695  143.4585  152.3333 C.3     1  UNL1        0.0897
     44 C         147.5619  143.2567  154.9152 C.3     1  UNL1        0.0897
     45 C         141.2374  144.0587  164.3131 C.3     1  UNL1        0.0969
     46 C         139.8199  144.5491  164.3274 C.3     1  UNL1        0.0236
     47 C         138.7755  143.8020  165.1026 C.3     1  UNL1        0.0263
     48 C         137.6603  143.1058  164.3805 C.3     1  UNL1        0.1077
     49 N         137.9713  142.0690  163.3420 N.ar    1  UNL1       -0.3079
     50 C         138.3003  140.6293  163.6043 C.ar    1  UNL1        0.1785
     51 N         138.5403  139.9605  162.2832 N.ar    1  UNL1       -0.2238
     52 C         138.3596  140.9870  161.2045 C.ar    1  UNL1        0.1017
     53 C         138.0080  142.2901  161.8588 C.ar    1  UNL1        0.0965
     54 C         138.5051  140.7516  159.7302 C.ar    1  UNL1        0.0383
     55 C         138.3050  141.8836  158.7667 C.ar    1  UNL1        0.0047
     56 C         138.4505  141.6483  157.2923 C.ar    1  UNL1        0.0207
     57 C         138.7961  140.2808  156.7816 C.ar    1  UNL1        0.0989
     58 N         138.9962  139.1488  157.7452 N.ar    1  UNL1       -0.2423
     59 C         138.8507  139.3842  159.2195 C.ar    1  UNL1        0.1004
@<TRIPOS>BOND
     1    28    29    1
     2     1    29    1
     3     1     2    1
     4     2     3    1
     5     3     4    2
     6     3     5    1
     7     5     6    1
     8     5     7    1
     9     7     8    2
    10     7     9    1
    11     9    10    1
    12     9    11    1
    13    11    32    1
    14    33    32    1
    15    33    34    1
    16    34    35    1
    17    35    36    1
    18    35    37    1
    19    37    38    1
    20    38    42    1
    21    42    43    1
    22    42    44    1
    23    38    39    1
    24    39    40    1
    25    11    12    1
    26    12    13    1
    27    12    30    1
    28    30    31    1
    29    12    14    1
    30    14    15    1
    31    15    16    1
    32    15    17    1
    33    17    18    2
    34    17    19    1
    35    19    20    1
    36    19    21    1
    37    21    22    1
    38    22    45    1
    39    45    46    1
    40    46    47    1
    41    47    48    1
    42    48    49    1
    43    49    50   ar
    44    50    51   ar
    45    51    52   ar
    46    52    54    1
    47    54    55   ar
    48    55    56   ar
    49    56    57   ar
    50    57    58   ar
    51    58    59   ar
    52    52    53   ar
    53    22    23   am
    54    23    24    2
    55    23    25    1
    56    25    26    1
    57    26    27    1
    58    26     1    1
    59    39    33    1
    60    26    21    1
    61    53    49   ar
    62    59    54   ar
    63    40    41    1
@<TRIPOS>MOLECULE
*****
 59 63 0 0 0
SMALL
GASTEIGER

@<TRIPOS>ATOM
      1 C         139.8055  143.5392  157.9036 C.3     1  UNL1        0.2066
      2 O         139.6680  144.5552  158.9985 O.3     1  UNL1       -0.4483
      3 C         139.7914  145.0452  160.4108 C.2     1  UNL1        0.3235
      4 O         139.2600  146.4454  160.3260 O.2     1  UNL1       -0.2496
      5 C         140.1514  144.9121  161.8608 C.3     1  UNL1        0.1563
      6 C         139.7801  146.2529  162.4214 C.3     1  UNL1        0.0196
      7 C         140.6766  144.1823  163.0615 C.2     1  UNL1        0.1629
      8 O         140.5390  145.1983  164.1563 O.2     1  UNL1       -0.2954
      9 C         141.2630  143.0002  163.7748 C.3     1  UNL1        0.0877
     10 C         141.3864  143.4902  165.1872 C.3     1  UNL1        0.0104
     11 C         141.7944  141.6000  163.8597 C.3     1  UNL1        0.1493
     12 C         142.1657  140.2591  163.2992 C.3     1  UNL1        0.1186
     13 C         142.4526  140.3371  164.7694 C.3     1  UNL1        0.0322
     14 C         142.3032  139.2431  162.2043 C.3     1  UNL1        0.0370
     15 C         142.1798  138.7531  160.7920 C.3     1  UNL1        0.0601
     16 C         142.7113  137.3529  160.8768 C.3     1  UNL1        0.0078
     17 C         141.8199  138.8862  159.3419 C.2     1  UNL1        0.1516
     18 O         142.1911  137.5453  158.7813 O.2     1  UNL1       -0.2960
     19 C         141.2947  139.6160  158.1413 C.3     1  UNL1        0.0794
     20 C         141.4322  138.6000  157.0465 C.3     1  UNL1        0.0096
     21 C         140.7083  140.7981  157.4279 C.3     1  UNL1        0.1254
     22 N         140.6367  140.1914  156.0580 N.am    1  UNL1       -0.2437
     23 C         140.0610  141.2165  155.1265 C.2     1  UNL1        0.4049
     24 O         139.8131  141.0335  153.6585 O.2     1  UNL1       -0.2262
     25 O         139.7768  142.4568  155.9207 O.3     1  UNL1       -0.4365
     26 C         140.1768  142.1982  157.3431 C.3     1  UNL1        0.1908
     27 C         139.5906  143.4138  156.6881 C.3     1  UNL1        0.0493
     28 C         139.8006  145.6356  156.3692 C.3     1  UNL1        0.0040
     29 C         139.2803  144.2690  156.7030 C.3     1  UNL1        0.0474
     30 O         142.7466  138.9752  163.8129 O.3     1  UNL1       -0.3535
     31 C         144.2258  138.7379  163.7372 C.3     1  UNL1        0.1740
     32 O         142.1544  141.4669  165.3097 O.3     1  UNL1       -0.3283
     33 C         141.1403  140.9574  166.2905 C.3     1  UNL1        0.2643
     34 O         140.0686  140.0108  165.8376 O.3     1  UNL1       -0.3311
     35 C         139.0544  139.5012  166.8184 C.3     1  UNL1        0.1194
     36 C         137.9826  138.5546  166.3655 C.3     1  UNL1        0.0322
     37 C         139.1121  139.9383  168.2521 C.3     1  UNL1        0.0482
     38 C         140.1839  140.8849  168.7051 C.3     1  UNL1        0.0921
     39 C         141.1980  141.3945  167.7242 C.3     1  UNL1        0.1815
     40 O         142.2698  142.3411  168.1772 O.3     1  UNL1       -0.3783
     41 H         142.1642  142.5196  169.1248 H       1  UNL1        0.2106
     42 N         140.2416  141.3220  170.1389 N.3     1  UNL1       -0.2692
     43 C         139.7135  142.6691  170.5341 C.3     1  UNL1        0.0897
     44 C         140.8274  140.4118  171.1773 C.3     1  UNL1        0.0897
     45 C         141.0655  138.8032  155.6850 C.3     1  UNL1        0.0969
     46 C         142.2181  138.6010  154.7466 C.3     1  UNL1        0.0236
     47 C         143.2371  139.6867  154.5652 C.3     1  UNL1        0.0263
     48 C         144.3261  139.8703  155.5802 C.3     1  UNL1        0.1077
     49 N         144.1929  140.9224  156.6411 N.ar    1  UNL1       -0.3079
     50 C         143.6838  142.3188  156.4389 C.ar    1  UNL1        0.1785
     51 N         143.7216  143.0222  157.7633 N.ar    1  UNL1       -0.2238
     52 C         144.2540  142.0604  158.7839 C.ar    1  UNL1        0.1017
     53 C         144.5453  140.7627  158.0903 C.ar    1  UNL1        0.0965
     54 C         144.4592  142.3462  160.2420 C.ar    1  UNL1        0.0383
     55 C         143.9380  143.6208  160.8370 C.ar    1  UNL1        0.0047
     56 C         144.1431  143.9067  162.2952 C.ar    1  UNL1        0.0207
     57 C         144.8694  142.9180  163.1584 C.ar    1  UNL1        0.0989
     58 N         145.3906  141.6435  162.5634 N.ar    1  UNL1       -0.2423
     59 C         145.1855  141.3576  161.1052 C.ar    1  UNL1        0.1004
@<TRIPOS>BOND
     1    28    29    1
     2     1    29    1
     3     1     2    1
     4     2     3    1
     5     3     4    2
     6     3     5    1
     7     5     6    1
     8     5     7    1
     9     7     8    2
    10     7     9    1
    11     9    10    1
    12     9    11    1
    13    11    32    1
    14    33    32    1
    15    33    34    1
    16    34    35    1
    17    35    36    1
    18    35    37    1
    19    37    38    1
    20    38    42    1
    21    42    43    1
    22    42    44    1
    23    38    39    1
    24    39    40    1
    25    11    12    1
    26    12    13    1
    27    12    30    1
    28    30    31    1
    29    12    14    1
    30    14    15    1
    31    15    16    1
    32    15    17    1
    33    17    18    2
    34    17    19    1
    35    19    20    1
    36    19    21    1
    37    21    22    1
    38    22    45    1
    39    45    46    1
    40    46    47    1
    41    47    48    1
    42    48    49    1
    43    49    50   ar
    44    50    51   ar
    45    51    52   ar
    46    52    54    1
    47    54    55   ar
    48    55    56   ar
    49    56    57   ar
    50    57    58   ar
    51    58    59   ar
    52    52    53   ar
    53    22    23   am
    54    23    24    2
    55    23    25    1
    56    25    26    1
    57    26    27    1
    58    26     1    1
    59    39    33    1
    60    26    21    1
    61    53    49   ar
    62    59    54   ar
    63    40    41    1
