@<TRIPOS>MOLECULE
*****
 30 32 0 0 0
SMALL
GASTEIGER

@<TRIPOS>ATOM
      1 C         143.3160  141.4496  161.1252 C.ar    1  UNL1        0.1366
      2 C         143.9235  141.4863  159.7541 C.ar    1  UNL1        0.0552
      3 C         143.9469  140.2461  158.9108 C.ar    1  UNL1        0.1047
      4 N         143.3627  138.9692  159.4384 N.ar    1  UNL1       -0.2119
      5 C         142.7553  138.9325  160.8094 C.ar    1  UNL1        0.2218
      6 N         142.7319  140.1727  161.6528 N.ar    1  UNL1       -0.1985
      7 N         143.2926  142.6898  161.9686 N.pl3   1  UNL1       -0.2983
      8 H         143.5098  143.5622  161.5673 H       1  UNL1        0.1536
      9 C         145.3909  141.9502  163.9811 C.3     1  UNL1        0.0323
     10 C         143.9873  142.2311  164.4297 C.ar    1  UNL1       -0.0087
     11 C         143.6329  142.1421  165.8844 C.ar    1  UNL1       -0.0030
     12 C         142.2294  142.4230  166.3330 C.ar    1  UNL1        0.0001
     13 C         141.1803  142.7929  165.3268 C.ar    1  UNL1       -0.0030
     14 C         141.5347  142.8818  163.8720 C.ar    1  UNL1       -0.0087
     15 C         140.4855  143.2516  162.8657 C.3     1  UNL1        0.0323
     16 C         142.9382  142.6009  163.4234 C.ar    1  UNL1        0.0413
     17 C         141.8750  142.3341  167.7879 C.2     1  UNL1        0.0109
     18 C         140.5825  142.9133  168.2817 C.2     1  UNL1        0.0780
     19 C         140.2281  142.8244  169.7365 C.1     1  UNL1        0.1011
     20 N         139.8737  142.7354  171.1914 N.1     1  UNL1       -0.1908
     21 N         142.1711  137.6556  161.3370 N.pl3   1  UNL1       -0.2825
     22 H         142.4227  136.7946  160.9313 H       1  UNL1        0.1551
     23 C         141.2038  137.6906  162.4829 C.ar    1  UNL1        0.0505
     24 C         141.7086  137.6106  163.8932 C.ar    1  UNL1        0.0154
     25 C         140.7412  137.6456  165.0391 C.ar    1  UNL1        0.0115
     26 C         139.2691  137.7605  164.7747 C.ar    1  UNL1        0.0685
     27 C         138.7645  137.8405  163.3644 C.ar    1  UNL1        0.0115
     28 C         139.7318  137.8055  162.2185 C.ar    1  UNL1        0.0154
     29 C         138.3018  137.7955  165.9205 C.1     1  UNL1        0.1004
     30 N         137.3345  137.8305  167.0664 N.1     1  UNL1       -0.1908
@<TRIPOS>BOND
     1     9    10    1
     2    10    11   ar
     3    11    12   ar
     4    12    17    1
     5    17    18    2
     6    18    19    1
     7    19    20    3
     8    12    13   ar
     9    13    14   ar
    10    14    15    1
    11    14    16   ar
    12    16     7    1
    13     7     1    1
    14     1     2   ar
    15     2     3   ar
    16     3     4   ar
    17     4     5   ar
    18     5    21    1
    19    21    23    1
    20    23    24   ar
    21    24    25   ar
    22    25    26   ar
    23    26    29    1
    24    29    30    3
    25    26    27   ar
    26    27    28   ar
    27     5     6   ar
    28    16    10   ar
    29     6     1   ar
    30    28    23   ar
    31     7     8    1
    32    21    22    1
@<TRIPOS>MOLECULE
*****
 30 32 0 0 0
SMALL
GASTEIGER

@<TRIPOS>ATOM
      1 C         143.3710  141.4488  161.1385 C.ar    1  UNL1        0.1366
      2 C         143.9272  141.4873  159.7459 C.ar    1  UNL1        0.0552
      3 C         143.9280  140.2459  158.9040 C.ar    1  UNL1        0.1047
      4 N         143.3728  138.9658  159.4547 N.ar    1  UNL1       -0.2119
      5 C         142.8166  138.9273  160.8473 C.ar    1  UNL1        0.2218
      6 N         142.8158  140.1688  161.6891 N.ar    1  UNL1       -0.1985
      7 N         143.3701  142.6903  161.9803 N.pl3   1  UNL1       -0.2983
      8 H         143.6130  143.5564  161.5804 H       1  UNL1        0.1536
      9 C         140.5663  143.3121  162.8476 C.3     1  UNL1        0.0323
     10 C         141.5972  142.9229  163.8652 C.ar    1  UNL1       -0.0087
     11 C         141.2263  142.8446  165.3165 C.ar    1  UNL1       -0.0030
     12 C         142.2572  142.4554  166.3342 C.ar    1  UNL1        0.0001
     13 C         143.6591  142.1445  165.9006 C.ar    1  UNL1       -0.0030
     14 C         144.0300  142.2228  164.4494 C.ar    1  UNL1       -0.0087
     15 C         145.4320  141.9119  164.0157 C.3     1  UNL1        0.0323
     16 C         142.9991  142.6120  163.4317 C.ar    1  UNL1        0.0413
     17 C         141.8862  142.3772  167.7856 C.2     1  UNL1        0.0109
     18 C         140.5674  142.9180  168.2527 C.2     1  UNL1        0.0780
     19 C         140.1964  142.8397  169.7040 C.1     1  UNL1        0.1011
     20 N         139.8254  142.7615  171.1553 N.1     1  UNL1       -0.1908
     21 N         142.2614  137.6473  161.3980 N.pl3   1  UNL1       -0.2825
     22 H         142.5443  136.7842  161.0181 H       1  UNL1        0.1551
     23 C         141.2750  137.6823  162.5276 C.ar    1  UNL1        0.0505
     24 C         139.8072  137.7922  162.2384 C.ar    1  UNL1        0.0154
     25 C         138.8208  137.8272  163.3679 C.ar    1  UNL1        0.0115
     26 C         139.3023  137.7522  164.7866 C.ar    1  UNL1        0.0685
     27 C         140.7700  137.6423  165.0757 C.ar    1  UNL1        0.0115
     28 C         141.7564  137.6073  163.9462 C.ar    1  UNL1        0.0154
     29 C         138.3159  137.7872  165.9162 C.1     1  UNL1        0.1004
     30 N         137.3295  137.8222  167.0457 N.1     1  UNL1       -0.1908
@<TRIPOS>BOND
     1     9    10    1
     2    10    11   ar
     3    11    12   ar
     4    12    17    1
     5    17    18    2
     6    18    19    1
     7    19    20    3
     8    12    13   ar
     9    13    14   ar
    10    14    15    1
    11    14    16   ar
    12    16     7    1
    13     7     1    1
    14     1     2   ar
    15     2     3   ar
    16     3     4   ar
    17     4     5   ar
    18     5    21    1
    19    21    23    1
    20    23    24   ar
    21    24    25   ar
    22    25    26   ar
    23    26    29    1
    24    29    30    3
    25    26    27   ar
    26    27    28   ar
    27     5     6   ar
    28    16    10   ar
    29     6     1   ar
    30    28    23   ar
    31     7     8    1
    32    21    22    1
@<TRIPOS>MOLECULE
*****
 30 32 0 0 0
SMALL
GASTEIGER

@<TRIPOS>ATOM
      1 C         142.5660  138.6292  162.7003 C.ar    1  UNL1        0.1366
      2 C         143.5163  138.0028  161.7231 C.ar    1  UNL1        0.0552
      3 C         144.0670  138.8136  160.5876 C.ar    1  UNL1        0.1047
      4 N         143.6675  140.2508  160.4293 N.ar    1  UNL1       -0.2119
      5 C         142.7173  140.8771  161.4065 C.ar    1  UNL1        0.2218
      6 N         142.1666  140.0663  162.5419 N.ar    1  UNL1       -0.1985
      7 N         142.0153  137.8184  163.8357 N.pl3   1  UNL1       -0.2983
      8 H         141.9806  136.8368  163.7683 H       1  UNL1        0.1536
      9 C         139.1164  138.5502  164.0828 C.3     1  UNL1        0.0323
     10 C         140.0681  138.8691  165.1975 C.ar    1  UNL1       -0.0087
     11 C         139.5703  139.5538  166.4358 C.ar    1  UNL1       -0.0030
     12 C         140.5220  139.8727  167.5505 C.ar    1  UNL1        0.0001
     13 C         141.9714  139.5068  167.4270 C.ar    1  UNL1       -0.0030
     14 C         142.4691  138.8221  166.1888 C.ar    1  UNL1       -0.0087
     15 C         143.9186  138.4562  166.0652 C.3     1  UNL1        0.0323
     16 C         141.5175  138.5032  165.0740 C.ar    1  UNL1        0.0413
     17 C         140.0241  140.5575  168.7888 C.2     1  UNL1        0.0109
     18 C         140.2414  142.0306  168.9701 C.2     1  UNL1        0.0780
     19 C         139.7436  142.7154  170.2083 C.1     1  UNL1        0.1011
     20 N         139.2458  143.4002  171.4465 N.1     1  UNL1       -0.1908
     21 N         142.3178  142.3143  161.2482 N.pl3   1  UNL1       -0.2825
     22 H         142.6325  142.8299  160.4708 H       1  UNL1        0.1551
     23 C         141.4389  142.9658  162.2743 C.ar    1  UNL1        0.0505
     24 C         140.0194  143.3124  161.9348 C.ar    1  UNL1        0.0154
     25 C         139.1405  143.9639  162.9610 C.ar    1  UNL1        0.0115
     26 C         139.6810  144.2688  164.3267 C.ar    1  UNL1        0.0685
     27 C         141.1003  143.9221  164.6661 C.ar    1  UNL1        0.0115
     28 C         141.9792  143.2707  163.6400 C.ar    1  UNL1        0.0154
     29 C         138.8020  144.9202  165.3528 C.1     1  UNL1        0.1004
     30 N         137.9230  145.5717  166.3790 N.1     1  UNL1       -0.1908
@<TRIPOS>BOND
     1     9    10    1
     2    10    11   ar
     3    11    12   ar
     4    12    17    1
     5    17    18    2
     6    18    19    1
     7    19    20    3
     8    12    13   ar
     9    13    14   ar
    10    14    15    1
    11    14    16   ar
    12    16     7    1
    13     7     1    1
    14     1     2   ar
    15     2     3   ar
    16     3     4   ar
    17     4     5   ar
    18     5    21    1
    19    21    23    1
    20    23    24   ar
    21    24    25   ar
    22    25    26   ar
    23    26    29    1
    24    29    30    3
    25    26    27   ar
    26    27    28   ar
    27     5     6   ar
    28    16    10   ar
    29     6     1   ar
    30    28    23   ar
    31     7     8    1
    32    21    22    1
@<TRIPOS>MOLECULE
*****
 30 32 0 0 0
SMALL
GASTEIGER

@<TRIPOS>ATOM
      1 C         143.8938  140.4948  160.4561 C.ar    1  UNL1        0.1366
      2 C         143.7374  140.0332  159.0375 C.ar    1  UNL1        0.0552
      3 C         143.1687  140.9611  158.0052 C.ar    1  UNL1        0.1047
      4 N         142.7564  142.3507  158.3917 N.ar    1  UNL1       -0.2119
      5 C         142.9128  142.8122  159.8103 C.ar    1  UNL1        0.2218
      6 N         143.4816  141.8842  160.8425 N.ar    1  UNL1       -0.1985
      7 N         144.4626  139.5668  161.4884 N.pl3   1  UNL1       -0.2983
      8 H         145.2264  138.9882  161.2627 H       1  UNL1        0.1536
      9 C         145.6245  141.2507  163.6826 C.3     1  UNL1        0.0323
     10 C         144.4484  140.3625  163.9616 C.ar    1  UNL1       -0.0087
     11 C         143.8532  140.3162  165.3377 C.ar    1  UNL1       -0.0030
     12 C         142.6772  139.4279  165.6167 C.ar    1  UNL1        0.0001
     13 C         142.0962  138.5860  164.5196 C.ar    1  UNL1       -0.0030
     14 C         142.6913  138.6323  163.1435 C.ar    1  UNL1       -0.0087
     15 C         142.1104  137.7903  162.0464 C.3     1  UNL1        0.0323
     16 C         143.8674  139.5205  162.8645 C.ar    1  UNL1        0.0413
     17 C         142.0820  139.3816  166.9928 C.2     1  UNL1        0.0109
     18 C         140.7665  140.0494  167.2639 C.2     1  UNL1        0.0780
     19 C         140.1713  140.0031  168.6399 C.1     1  UNL1        0.1011
     20 N         139.5762  139.9569  170.0161 N.1     1  UNL1       -0.1908
     21 N         142.5005  144.2017  160.1968 N.pl3   1  UNL1       -0.2825
     22 H         142.8069  144.9718  159.6654 H       1  UNL1        0.1551
     23 C         141.6215  144.4179  161.3928 C.ar    1  UNL1        0.0505
     24 C         140.1308  144.3247  161.2547 C.ar    1  UNL1        0.0154
     25 C         139.2517  144.5408  162.4507 C.ar    1  UNL1        0.0115
     26 C         139.8635  144.8502  163.7850 C.ar    1  UNL1        0.0685
     27 C         141.3541  144.9434  163.9231 C.ar    1  UNL1        0.0115
     28 C         142.2332  144.7272  162.7270 C.ar    1  UNL1        0.0154
     29 C         138.9844  145.0663  164.9811 C.1     1  UNL1        0.1004
     30 N         138.1054  145.2825  166.1771 N.1     1  UNL1       -0.1908
@<TRIPOS>BOND
     1     9    10    1
     2    10    11   ar
     3    11    12   ar
     4    12    17    1
     5    17    18    2
     6    18    19    1
     7    19    20    3
     8    12    13   ar
     9    13    14   ar
    10    14    15    1
    11    14    16   ar
    12    16     7    1
    13     7     1    1
    14     1     2   ar
    15     2     3   ar
    16     3     4   ar
    17     4     5   ar
    18     5    21    1
    19    21    23    1
    20    23    24   ar
    21    24    25   ar
    22    25    26   ar
    23    26    29    1
    24    29    30    3
    25    26    27   ar
    26    27    28   ar
    27     5     6   ar
    28    16    10   ar
    29     6     1   ar
    30    28    23   ar
    31     7     8    1
    32    21    22    1
@<TRIPOS>MOLECULE
*****
 30 32 0 0 0
SMALL
GASTEIGER

@<TRIPOS>ATOM
      1 C         141.7466  138.3360  161.7879 C.ar    1  UNL1        0.1366
      2 C         142.5048  137.7893  160.6147 C.ar    1  UNL1        0.0552
      3 C         142.4594  138.5007  159.2949 C.ar    1  UNL1        0.1047
      4 N         141.6559  139.7588  159.1483 N.ar    1  UNL1       -0.2119
      5 C         140.8977  140.3055  160.3215 C.ar    1  UNL1        0.2218
      6 N         140.9431  139.5941  161.6413 N.ar    1  UNL1       -0.1985
      7 N         141.7920  137.6246  163.1077 N.pl3   1  UNL1       -0.2983
      8 H         142.0412  136.6729  163.1456 H       1  UNL1        0.1536
      9 C         143.9670  138.9577  164.6865 C.3     1  UNL1        0.0323
     10 C         142.5452  139.0297  165.1591 C.ar    1  UNL1       -0.0087
     11 C         142.2108  139.7683  166.4211 C.ar    1  UNL1       -0.0030
     12 C         140.7891  139.8404  166.8937 C.ar    1  UNL1        0.0001
     13 C         139.7016  139.1739  166.1043 C.ar    1  UNL1       -0.0030
     14 C         140.0360  138.4353  164.8423 C.ar    1  UNL1       -0.0087
     15 C         138.9485  137.7687  164.0529 C.3     1  UNL1        0.0323
     16 C         141.4577  138.3632  164.3697 C.ar    1  UNL1        0.0413
     17 C         140.4548  140.5790  168.1558 C.2     1  UNL1        0.0109
     18 C         141.3305  140.4327  169.3648 C.2     1  UNL1        0.0780
     19 C         140.9962  141.1712  170.6268 C.1     1  UNL1        0.1011
     20 N         140.6620  141.9098  171.8889 N.1     1  UNL1       -0.1908
     21 N         140.0942  141.5637  160.1749 N.pl3   1  UNL1       -0.2825
     22 H         139.8268  141.8756  159.2802 H       1  UNL1        0.1551
     23 C         139.6980  142.3465  161.3915 C.ar    1  UNL1        0.0505
     24 C         138.2972  142.2533  161.9201 C.ar    1  UNL1        0.0154
     25 C         137.9010  143.0361  163.1367 C.ar    1  UNL1        0.0115
     26 C         138.9056  143.9122  163.8248 C.ar    1  UNL1        0.0685
     27 C         140.3062  144.0054  163.2962 C.ar    1  UNL1        0.0115
     28 C         140.7024  143.2226  162.0796 C.ar    1  UNL1        0.0154
     29 C         138.5094  144.6951  165.0414 C.1     1  UNL1        0.1004
     30 N         138.1132  145.4779  166.2580 N.1     1  UNL1       -0.1908
@<TRIPOS>BOND
     1     9    10    1
     2    10    11   ar
     3    11    12   ar
     4    12    17    1
     5    17    18    2
     6    18    19    1
     7    19    20    3
     8    12    13   ar
     9    13    14   ar
    10    14    15    1
    11    14    16   ar
    12    16     7    1
    13     7     1    1
    14     1     2   ar
    15     2     3   ar
    16     3     4   ar
    17     4     5   ar
    18     5    21    1
    19    21    23    1
    20    23    24   ar
    21    24    25   ar
    22    25    26   ar
    23    26    29    1
    24    29    30    3
    25    26    27   ar
    26    27    28   ar
    27     5     6   ar
    28    16    10   ar
    29     6     1   ar
    30    28    23   ar
    31     7     8    1
    32    21    22    1
@<TRIPOS>MOLECULE
*****
 30 32 0 0 0
SMALL
GASTEIGER

@<TRIPOS>ATOM
      1 C         141.7655  138.4319  161.6082 C.ar    1  UNL1        0.1366
      2 C         142.5474  137.9546  160.4204 C.ar    1  UNL1        0.0552
      3 C         142.4636  138.6971  159.1197 C.ar    1  UNL1        0.1047
      4 N         141.5980  139.9170  159.0069 N.ar    1  UNL1       -0.2119
      5 C         140.8161  140.3942  160.1947 C.ar    1  UNL1        0.2218
      6 N         140.8999  139.6517  161.4953 N.ar    1  UNL1       -0.1985
      7 N         141.8492  137.6894  162.9088 N.pl3   1  UNL1       -0.2983
      8 H         142.1398  136.7488  162.9208 H       1  UNL1        0.1536
      9 C         139.0133  137.6573  163.8870 C.3     1  UNL1        0.0323
     10 C         140.0723  138.3639  164.6802 C.ar    1  UNL1       -0.0087
     11 C         139.7134  139.0544  165.9625 C.ar    1  UNL1       -0.0030
     12 C         140.7724  139.7611  166.7557 C.ar    1  UNL1        0.0001
     13 C         142.1903  139.7771  166.2666 C.ar    1  UNL1       -0.0030
     14 C         142.5492  139.0866  164.9844 C.ar    1  UNL1       -0.0087
     15 C         143.9672  139.1026  164.4953 C.3     1  UNL1        0.0323
     16 C         141.4902  138.3800  164.1911 C.ar    1  UNL1        0.0413
     17 C         140.4134  140.4516  168.0380 C.2     1  UNL1        0.0109
     18 C         140.5160  141.9446  168.1400 C.2     1  UNL1        0.0780
     19 C         140.1571  142.6352  169.4223 C.1     1  UNL1        0.1011
     20 N         139.7981  143.3259  170.7046 N.1     1  UNL1       -0.1908
     21 N         139.9504  141.6141  160.0819 N.pl3   1  UNL1       -0.2825
     22 H         139.6243  141.9065  159.2002 H       1  UNL1        0.1551
     23 C         139.5817  142.3885  161.3125 C.ar    1  UNL1        0.0505
     24 C         138.1935  142.2903  161.8725 C.ar    1  UNL1        0.0154
     25 C         137.8248  143.0647  163.1031 C.ar    1  UNL1        0.0115
     26 C         138.8442  143.9372  163.7738 C.ar    1  UNL1        0.0685
     27 C         140.2323  144.0352  163.2138 C.ar    1  UNL1        0.0115
     28 C         140.6010  143.2609  161.9832 C.ar    1  UNL1        0.0154
     29 C         138.4754  144.7115  165.0044 C.1     1  UNL1        0.1004
     30 N         138.1067  145.4859  166.2350 N.1     1  UNL1       -0.1908
@<TRIPOS>BOND
     1     9    10    1
     2    10    11   ar
     3    11    12   ar
     4    12    17    1
     5    17    18    2
     6    18    19    1
     7    19    20    3
     8    12    13   ar
     9    13    14   ar
    10    14    15    1
    11    14    16   ar
    12    16     7    1
    13     7     1    1
    14     1     2   ar
    15     2     3   ar
    16     3     4   ar
    17     4     5   ar
    18     5    21    1
    19    21    23    1
    20    23    24   ar
    21    24    25   ar
    22    25    26   ar
    23    26    29    1
    24    29    30    3
    25    26    27   ar
    26    27    28   ar
    27     5     6   ar
    28    16    10   ar
    29     6     1   ar
    30    28    23   ar
    31     7     8    1
    32    21    22    1
@<TRIPOS>MOLECULE
*****
 30 32 0 0 0
SMALL
GASTEIGER

@<TRIPOS>ATOM
      1 C         142.1938  143.1035  161.6818 C.ar    1  UNL1        0.1366
      2 C         142.6774  143.5373  160.3297 C.ar    1  UNL1        0.0552
      3 C         142.3755  142.7014  159.1214 C.ar    1  UNL1        0.1047
      4 N         141.5899  141.4316  159.2651 N.ar    1  UNL1       -0.2119
      5 C         141.1064  140.9978  160.6171 C.ar    1  UNL1        0.2218
      6 N         141.4083  141.8337  161.8254 N.ar    1  UNL1       -0.1985
      7 N         142.4958  143.9394  162.8901 N.pl3   1  UNL1       -0.2983
      8 H         142.9579  144.8027  162.7884 H       1  UNL1        0.1536
      9 C         139.6955  144.3832  163.8707 C.3     1  UNL1        0.0323
     10 C         140.6935  143.6818  164.7436 C.ar    1  UNL1       -0.0087
     11 C         140.2914  143.2023  166.1068 C.ar    1  UNL1       -0.0030
     12 C         141.2894  142.5009  166.9797 C.ar    1  UNL1        0.0001
     13 C         142.6895  142.2790  166.4895 C.ar    1  UNL1       -0.0030
     14 C         143.0916  142.7585  165.1263 C.ar    1  UNL1       -0.0087
     15 C         144.4918  142.5366  164.6359 C.3     1  UNL1        0.0323
     16 C         142.0936  143.4599  164.2533 C.ar    1  UNL1        0.0413
     17 C         140.8873  142.0214  168.3430 C.2     1  UNL1        0.0109
     18 C         140.3219  140.6429  168.5166 C.2     1  UNL1        0.0780
     19 C         139.9198  140.1634  169.8798 C.1     1  UNL1        0.1011
     20 N         139.5176  139.6839  171.2431 N.1     1  UNL1       -0.1908
     21 N         140.3208  139.7280  160.7609 N.pl3   1  UNL1       -0.2825
     22 H         140.1831  139.1434  159.9808 H       1  UNL1        0.1551
     23 C         139.7452  139.3489  162.0931 C.ar    1  UNL1        0.0505
     24 C         138.8261  140.2937  162.8092 C.ar    1  UNL1        0.0154
     25 C         138.2505  139.9146  164.1415 C.ar    1  UNL1        0.0115
     26 C         138.5940  138.5908  164.7577 C.ar    1  UNL1        0.0685
     27 C         139.5130  137.6461  164.0416 C.ar    1  UNL1        0.0115
     28 C         140.0886  138.0252  162.7093 C.ar    1  UNL1        0.0154
     29 C         138.0183  138.2118  166.0900 C.1     1  UNL1        0.1004
     30 N         137.4427  137.8327  167.4223 N.1     1  UNL1       -0.1908
@<TRIPOS>BOND
     1     9    10    1
     2    10    11   ar
     3    11    12   ar
     4    12    17    1
     5    17    18    2
     6    18    19    1
     7    19    20    3
     8    12    13   ar
     9    13    14   ar
    10    14    15    1
    11    14    16   ar
    12    16     7    1
    13     7     1    1
    14     1     2   ar
    15     2     3   ar
    16     3     4   ar
    17     4     5   ar
    18     5    21    1
    19    21    23    1
    20    23    24   ar
    21    24    25   ar
    22    25    26   ar
    23    26    29    1
    24    29    30    3
    25    26    27   ar
    26    27    28   ar
    27     5     6   ar
    28    16    10   ar
    29     6     1   ar
    30    28    23   ar
    31     7     8    1
    32    21    22    1
@<TRIPOS>MOLECULE
*****
 30 32 0 0 0
SMALL
GASTEIGER

@<TRIPOS>ATOM
      1 C         140.6106  144.9424  161.2084 C.ar    1  UNL1        0.1366
      2 C         140.8336  145.7103  159.9392 C.ar    1  UNL1        0.0552
      3 C         140.2608  145.2068  158.6476 C.ar    1  UNL1        0.1047
      4 N         139.4651  143.9353  158.6251 N.ar    1  UNL1       -0.2119
      5 C         139.2422  143.1675  159.8942 C.ar    1  UNL1        0.2218
      6 N         139.8149  143.6711  161.1859 N.ar    1  UNL1       -0.1985
      7 N         141.1834  145.4460  162.5001 N.pl3   1  UNL1       -0.2983
      8 H         141.3649  146.4065  162.6168 H       1  UNL1        0.1536
      9 C         143.9262  144.2607  162.7692 C.3     1  UNL1        0.0323
     10 C         142.8510  143.8933  163.7485 C.ar    1  UNL1       -0.0087
     11 C         143.1471  142.9333  164.8623 C.ar    1  UNL1       -0.0030
     12 C         142.0720  142.5660  165.8416 C.ar    1  UNL1        0.0001
     13 C         140.7006  143.1586  165.7071 C.ar    1  UNL1       -0.0030
     14 C         140.4044  144.1186  164.5932 C.ar    1  UNL1       -0.0087
     15 C         139.0330  144.7112  164.4586 C.3     1  UNL1        0.0323
     16 C         141.4796  144.4859  163.6139 C.ar    1  UNL1        0.0413
     17 C         142.3682  141.6059  166.9555 C.2     1  UNL1        0.0109
     18 C         142.7505  142.1240  168.3103 C.2     1  UNL1        0.0780
     19 C         143.0467  141.1640  169.4241 C.1     1  UNL1        0.1011
     20 N         143.3429  140.2040  170.5380 N.1     1  UNL1       -0.1908
     21 N         138.4465  141.8961  159.8717 N.pl3   1  UNL1       -0.2825
     22 H         137.8933  141.6754  159.0878 H       1  UNL1        0.1551
     23 C         138.4936  140.9611  161.0437 C.ar    1  UNL1        0.0505
     24 C         137.8268  141.3401  162.3328 C.ar    1  UNL1        0.0154
     25 C         137.8739  140.4050  163.5048 C.ar    1  UNL1        0.0115
     26 C         138.5878  139.0910  163.3876 C.ar    1  UNL1        0.0685
     27 C         139.2546  138.7121  162.0985 C.ar    1  UNL1        0.0115
     28 C         139.2075  139.6471  160.9265 C.ar    1  UNL1        0.0154
     29 C         138.6350  138.1559  164.5595 C.1     1  UNL1        0.1004
     30 N         138.6821  137.2209  165.7314 N.1     1  UNL1       -0.1908
@<TRIPOS>BOND
     1     9    10    1
     2    10    11   ar
     3    11    12   ar
     4    12    17    1
     5    17    18    2
     6    18    19    1
     7    19    20    3
     8    12    13   ar
     9    13    14   ar
    10    14    15    1
    11    14    16   ar
    12    16     7    1
    13     7     1    1
    14     1     2   ar
    15     2     3   ar
    16     3     4   ar
    17     4     5   ar
    18     5    21    1
    19    21    23    1
    20    23    24   ar
    21    24    25   ar
    22    25    26   ar
    23    26    29    1
    24    29    30    3
    25    26    27   ar
    26    27    28   ar
    27     5     6   ar
    28    16    10   ar
    29     6     1   ar
    30    28    23   ar
    31     7     8    1
    32    21    22    1
@<TRIPOS>MOLECULE
*****
 30 32 0 0 0
SMALL
GASTEIGER

@<TRIPOS>ATOM
      1 C         142.5307  138.0838  161.1606 C.ar    1  UNL1        0.1366
      2 C         141.2448  138.8535  161.0970 C.ar    1  UNL1        0.0552
      3 C         140.5824  139.0990  159.7737 C.ar    1  UNL1        0.1047
      4 N         141.2059  138.5747  158.5142 N.ar    1  UNL1       -0.2119
      5 C         142.4918  137.8051  158.5779 C.ar    1  UNL1        0.2218
      6 N         143.1542  137.5596  159.9011 N.ar    1  UNL1       -0.1985
      7 N         143.1931  137.8383  162.4839 N.pl3   1  UNL1       -0.2983
      8 H         143.8402  137.1027  162.5815 H       1  UNL1        0.1536
      9 C         144.6819  140.4105  162.8929 C.3     1  UNL1        0.0323
     10 C         143.6140  139.9996  163.8628 C.ar    1  UNL1       -0.0087
     11 C         143.2906  140.8748  165.0373 C.ar    1  UNL1       -0.0030
     12 C         142.2227  140.4639  166.0072 C.ar    1  UNL1        0.0001
     13 C         141.4783  139.1779  165.8028 C.ar    1  UNL1       -0.0030
     14 C         141.8018  138.3027  164.6283 C.ar    1  UNL1       -0.0087
     15 C         141.0574  137.0165  164.4238 C.3     1  UNL1        0.0323
     16 C         142.8697  138.7136  163.6584 C.ar    1  UNL1        0.0413
     17 C         141.8993  141.3392  167.1817 C.2     1  UNL1        0.0109
     18 C         142.9638  141.6720  168.1848 C.2     1  UNL1        0.0780
     19 C         142.6404  142.5472  169.3592 C.1     1  UNL1        0.1011
     20 N         142.3169  143.4225  170.5337 N.1     1  UNL1       -0.1908
     21 N         143.1153  137.2808  157.3183 N.pl3   1  UNL1       -0.2825
     22 H         143.7775  137.8246  156.8335 H       1  UNL1        0.1551
     23 C         142.7298  135.9280  156.7973 C.ar    1  UNL1        0.0505
     24 C         141.6956  135.8069  155.7175 C.ar    1  UNL1        0.0154
     25 C         141.3101  134.4542  155.1966 C.ar    1  UNL1        0.0115
     26 C         141.9588  133.2225  155.7554 C.ar    1  UNL1        0.0685
     27 C         142.9929  133.3436  156.8352 C.ar    1  UNL1        0.0115
     28 C         143.3784  134.6964  157.3561 C.ar    1  UNL1        0.0154
     29 C         141.5733  131.8697  155.2345 C.1     1  UNL1        0.1004
     30 N         141.1879  130.5169  154.7136 N.1     1  UNL1       -0.1908
@<TRIPOS>BOND
     1     9    10    1
     2    10    11   ar
     3    11    12   ar
     4    12    17    1
     5    17    18    2
     6    18    19    1
     7    19    20    3
     8    12    13   ar
     9    13    14   ar
    10    14    15    1
    11    14    16   ar
    12    16     7    1
    13     7     1    1
    14     1     2   ar
    15     2     3   ar
    16     3     4   ar
    17     4     5   ar
    18     5    21    1
    19    21    23    1
    20    23    24   ar
    21    24    25   ar
    22    25    26   ar
    23    26    29    1
    24    29    30    3
    25    26    27   ar
    26    27    28   ar
    27     5     6   ar
    28    16    10   ar
    29     6     1   ar
    30    28    23   ar
    31     7     8    1
    32    21    22    1
