@<TRIPOS>MOLECULE
*****
 34 37 0 0 0
SMALL
GASTEIGER

@<TRIPOS>ATOM
      1 C         138.9925  142.3268  161.5850 C.ar    1  UNL1        0.1319
      2 C         138.9385  141.6312  160.2572 C.ar    1  UNL1        0.0548
      3 C         138.8493  140.1350  160.1974 C.ar    1  UNL1        0.1049
      4 N         138.8141  139.3345  161.4655 N.ar    1  UNL1       -0.2105
      5 N         138.7291  137.8584  161.7186 N.ar    1  UNL1       -0.1621
      6 C         138.7306  137.6418  163.2028 C.ar    1  UNL1        0.1237
      7 C         138.8165  138.9840  163.8671 C.ar    1  UNL1        0.0598
      8 C         138.8681  140.0301  162.7933 C.ar    1  UNL1        0.1667
      9 N         138.9573  141.5263  162.8531 N.ar    1  UNL1       -0.2120
     10 C         138.8456  139.2359  165.3455 C.ar    1  UNL1        0.0442
     11 C         137.9657  138.5813  166.3689 C.ar    1  UNL1        0.1218
     12 N         138.3361  139.1275  167.7160 N.ar    1  UNL1       -0.1676
     13 N         139.4449  140.1195  167.5251 N.ar    1  UNL1       -0.2468
     14 C         139.7598  140.1865  166.0601 C.ar    1  UNL1        0.0968
     15 C         140.1202  140.9063  168.6090 C.3     1  UNL1        0.1591
     16 C         140.2594  140.3228  169.9838 C.3     1  UNL1        0.1635
     17 O         139.0526  139.7908  170.6984 O.3     1  UNL1       -0.3799
     18 H         138.4440  140.5206  170.8927 H       1  UNL1        0.2105
     19 N         139.0817  143.8230  161.6449 N.pl3   1  UNL1       -0.3159
     20 H         138.3266  144.3474  161.9970 H       1  UNL1        0.1484
     21 C         140.2362  145.5275  160.0601 C.3     1  UNL1        0.0262
     22 C         140.3213  144.5201  161.1682 C.3     1  UNL1        0.0960
     23 C         141.6462  144.2097  161.7995 C.ar    1  UNL1        0.0317
     24 C         142.7387  143.5863  160.9823 C.ar    1  UNL1        0.0300
     25 C         144.0635  143.2760  161.6135 C.ar    1  UNL1        0.1401
     26 F         145.1560  142.6526  160.7964 F       1  UNL1       -0.2042
     27 C         144.2958  143.5890  163.0620 C.ar    1  UNL1        0.0327
     28 C         143.2033  144.2124  163.8791 C.ar    1  UNL1        0.0389
     29 C         141.8784  144.5227  163.2479 C.ar    1  UNL1        0.1365
     30 O         140.7859  145.1461  164.0651 O.3     1  UNL1       -0.4696
     31 C         139.9420  144.2926  164.9646 C.3     1  UNL1        0.2771
     32 C         138.5242  144.6851  165.2576 C.3     1  UNL1        0.3615
     33 F         137.4060  144.1354  164.4225 F       1  UNL1       -0.1942
     34 F         138.2247  145.6274  166.3856 F       1  UNL1       -0.1942
@<TRIPOS>BOND
     1    22    21    1
     2    22    19    1
     3    19     1    1
     4     1     2   ar
     5     2     3   ar
     6     3     4   ar
     7     4     5   ar
     8     5     6   ar
     9     6     7   ar
    10     7    10    1
    11    10    11   ar
    12    11    12   ar
    13    12    13   ar
    14    13    15    1
    15    15    16    1
    16    16    17    1
    17    13    14   ar
    18     7     8   ar
    19     8     9   ar
    20    22    23    1
    21    23    24   ar
    22    24    25   ar
    23    25    26    1
    24    25    27   ar
    25    27    28   ar
    26    28    29   ar
    27    29    30    1
    28    30    31    1
    29    31    32    1
    30    32    33    1
    31    32    34    1
    32     9     1   ar
    33    29    23   ar
    34     8     4   ar
    35    14    10   ar
    36    19    20    1
    37    17    18    1
@<TRIPOS>MOLECULE
*****
 34 37 0 0 0
SMALL
GASTEIGER

@<TRIPOS>ATOM
      1 C         140.3997  139.0100  165.1610 C.ar    1  UNL1        0.1319
      2 C         139.9738  137.6053  164.8519 C.ar    1  UNL1        0.0548
      3 C         139.0510  137.3378  163.7001 C.ar    1  UNL1        0.1049
      4 N         138.5540  138.4748  162.8575 N.ar    1  UNL1       -0.2105
      5 N         137.6426  138.5181  161.6667 N.ar    1  UNL1       -0.1621
      6 C         137.5053  139.9495  161.2400 C.ar    1  UNL1        0.1237
      7 C         138.3317  140.7909  162.1669 C.ar    1  UNL1        0.0598
      8 C         138.9798  139.8794  163.1666 C.ar    1  UNL1        0.1667
      9 N         139.9027  140.1470  164.3184 N.ar    1  UNL1       -0.2120
     10 C         138.4835  142.2819  162.1051 C.ar    1  UNL1        0.0442
     11 C         137.7128  143.2809  162.9163 C.ar    1  UNL1        0.1218
     12 N         138.1856  144.6522  162.5337 N.ar    1  UNL1       -0.1676
     13 N         139.2484  144.5006  161.4862 N.ar    1  UNL1       -0.2468
     14 C         139.4325  143.0357  161.2213 C.ar    1  UNL1        0.0968
     15 C         139.9958  145.6177  160.8204 C.3     1  UNL1        0.1591
     16 C         141.2840  145.3366  160.1052 C.3     1  UNL1        0.1635
     17 O         142.4797  144.8578  160.8740 O.3     1  UNL1       -0.3799
     18 H         142.7779  145.5569  161.4766 H       1  UNL1        0.2105
     19 N         141.3226  139.2776  166.3129 N.pl3   1  UNL1       -0.3159
     20 H         140.9551  139.4250  167.2142 H       1  UNL1        0.1484
     21 C         143.6346  138.0925  166.3237 C.3     1  UNL1        0.0262
     22 C         142.8055  139.3207  166.0914 C.3     1  UNL1        0.0960
     23 C         143.4594  140.5922  165.6375 C.ar    1  UNL1        0.0317
     24 C         144.3819  140.5804  164.4548 C.ar    1  UNL1        0.0300
     25 C         145.0358  141.8518  164.0009 C.ar    1  UNL1        0.1401
     26 F         145.9582  141.8400  162.8181 F       1  UNL1       -0.2042
     27 C         144.7672  143.1349  164.7299 C.ar    1  UNL1        0.0327
     28 C         143.8448  143.1467  165.9127 C.ar    1  UNL1        0.0389
     29 C         143.1909  141.8753  166.3665 C.ar    1  UNL1        0.1365
     30 O         142.2685  141.8871  167.5493 O.3     1  UNL1       -0.4696
     31 C         142.7880  141.5257  168.9092 C.3     1  UNL1        0.2771
     32 C         143.4155  142.5768  169.7760 C.3     1  UNL1        0.3615
     33 F         144.8975  142.5708  170.0084 F       1  UNL1       -0.1942
     34 F         142.5612  143.6340  170.4105 F       1  UNL1       -0.1942
@<TRIPOS>BOND
     1    22    21    1
     2    22    19    1
     3    19     1    1
     4     1     2   ar
     5     2     3   ar
     6     3     4   ar
     7     4     5   ar
     8     5     6   ar
     9     6     7   ar
    10     7    10    1
    11    10    11   ar
    12    11    12   ar
    13    12    13   ar
    14    13    15    1
    15    15    16    1
    16    16    17    1
    17    13    14   ar
    18     7     8   ar
    19     8     9   ar
    20    22    23    1
    21    23    24   ar
    22    24    25   ar
    23    25    26    1
    24    25    27   ar
    25    27    28   ar
    26    28    29   ar
    27    29    30    1
    28    30    31    1
    29    31    32    1
    30    32    33    1
    31    32    34    1
    32     9     1   ar
    33    29    23   ar
    34     8     4   ar
    35    14    10   ar
    36    19    20    1
    37    17    18    1
@<TRIPOS>MOLECULE
*****
 34 37 0 0 0
SMALL
GASTEIGER

@<TRIPOS>ATOM
      1 C         142.2369  139.6388  164.7163 C.ar    1  UNL1        0.1319
      2 C         141.8992  138.2477  165.1641 C.ar    1  UNL1        0.0548
      3 C         140.7357  137.5248  164.5529 C.ar    1  UNL1        0.1049
      4 N         139.9099  138.1931  163.4939 N.ar    1  UNL1       -0.2105
      5 N         138.7131  137.7331  162.7152 N.ar    1  UNL1       -0.1621
      6 C         138.3112  138.8401  161.7862 C.ar    1  UNL1        0.1237
      7 C         139.2595  139.9841  161.9908 C.ar    1  UNL1        0.0598
      8 C         140.2475  139.5843  163.0462 C.ar    1  UNL1        0.1667
      9 N         141.4110  140.3071  163.6574 N.ar    1  UNL1       -0.2120
     10 C         139.2258  141.2975  161.2670 C.ar    1  UNL1        0.0442
     11 C         138.4000  141.6159  160.0559 C.ar    1  UNL1        0.1218
     12 N         138.6758  143.0383  159.6676 N.ar    1  UNL1       -0.1676
     13 N         139.6720  143.5991  160.6387 N.ar    1  UNL1       -0.2468
     14 C         140.0119  142.5233  161.6272 C.ar    1  UNL1        0.0968
     15 C         140.2302  144.9912  160.6240 C.3     1  UNL1        0.1591
     16 C         139.5860  146.0663  161.4480 C.3     1  UNL1        0.1635
     17 O         140.3862  146.7975  162.4849 O.3     1  UNL1       -0.3799
     18 H         140.6401  146.1824  163.1906 H       1  UNL1        0.2105
     19 N         143.4004  140.3618  165.3275 N.pl3   1  UNL1       -0.3159
     20 H         144.2508  139.8886  165.4765 H       1  UNL1        0.1484
     21 C         143.9542  142.8638  164.8994 C.3     1  UNL1        0.0262
     22 C         143.2683  141.8057  165.7118 C.3     1  UNL1        0.0960
     23 C         142.4503  142.1916  166.9085 C.ar    1  UNL1        0.0317
     24 C         143.0338  142.0739  168.2854 C.ar    1  UNL1        0.0300
     25 C         142.2159  142.4598  169.4820 C.ar    1  UNL1        0.1401
     26 F         142.7994  142.3421  170.8589 F       1  UNL1       -0.2042
     27 C         140.8145  142.9632  169.3019 C.ar    1  UNL1        0.0327
     28 C         140.2310  143.0808  167.9250 C.ar    1  UNL1        0.0389
     29 C         141.0489  142.6950  166.7284 C.ar    1  UNL1        0.1365
     30 O         140.4654  142.8127  165.3515 O.3     1  UNL1       -0.4696
     31 C         140.1401  144.1640  164.7877 C.3     1  UNL1        0.2771
     32 C         138.7518  144.7167  164.9181 C.3     1  UNL1        0.3615
     33 F         138.3699  145.5057  166.1354 F       1  UNL1       -0.1942
     34 F         137.7454  144.4806  163.8312 F       1  UNL1       -0.1942
@<TRIPOS>BOND
     1    22    21    1
     2    22    19    1
     3    19     1    1
     4     1     2   ar
     5     2     3   ar
     6     3     4   ar
     7     4     5   ar
     8     5     6   ar
     9     6     7   ar
    10     7    10    1
    11    10    11   ar
    12    11    12   ar
    13    12    13   ar
    14    13    15    1
    15    15    16    1
    16    16    17    1
    17    13    14   ar
    18     7     8   ar
    19     8     9   ar
    20    22    23    1
    21    23    24   ar
    22    24    25   ar
    23    25    26    1
    24    25    27   ar
    25    27    28   ar
    26    28    29   ar
    27    29    30    1
    28    30    31    1
    29    31    32    1
    30    32    33    1
    31    32    34    1
    32     9     1   ar
    33    29    23   ar
    34     8     4   ar
    35    14    10   ar
    36    19    20    1
    37    17    18    1
@<TRIPOS>MOLECULE
*****
 34 37 0 0 0
SMALL
GASTEIGER

@<TRIPOS>ATOM
      1 C         141.4605  140.0022  161.0435 C.ar    1  UNL1        0.1319
      2 C         142.2695  140.6920  159.9854 C.ar    1  UNL1        0.0548
      3 C         143.6167  141.2590  160.3220 C.ar    1  UNL1        0.1049
      4 N         144.1550  141.1362  161.7167 N.ar    1  UNL1       -0.2105
      5 N         145.4404  141.5933  162.3403 N.ar    1  UNL1       -0.1621
      6 C         145.4258  141.1859  163.7839 C.ar    1  UNL1        0.1237
      7 C         144.1314  140.4771  164.0524 C.ar    1  UNL1        0.0598
      8 C         143.3460  140.4464  162.7748 C.ar    1  UNL1        0.1667
      9 N         141.9987  139.8794  162.4382 N.ar    1  UNL1       -0.2120
     10 C         143.6983  139.9003  165.3676 C.ar    1  UNL1        0.0442
     11 C         144.0936  138.5613  165.9160 C.ar    1  UNL1        0.1218
     12 N         143.4335  138.3947  167.2527 N.ar    1  UNL1       -0.1676
     13 N         142.6303  139.6307  167.5304 N.ar    1  UNL1       -0.2468
     14 C         142.7940  140.5612  166.3653 C.ar    1  UNL1        0.0968
     15 C         141.8079  139.8905  168.7575 C.3     1  UNL1        0.1591
     16 C         142.2910  139.4206  170.0975 C.3     1  UNL1        0.1635
     17 O         142.9467  138.0779  170.2298 O.3     1  UNL1       -0.3799
     18 H         142.2994  137.3816  170.0373 H       1  UNL1        0.2105
     19 N         140.1131  139.4351  160.7070 N.pl3   1  UNL1       -0.3159
     20 H         140.0118  138.4691  160.5464 H       1  UNL1        0.1484
     21 C         138.1379  140.4221  159.3380 C.3     1  UNL1        0.0262
     22 C         138.9203  140.3399  160.6151 C.3     1  UNL1        0.0960
     23 C         138.5098  141.1625  161.8004 C.ar    1  UNL1        0.0317
     24 C         138.3316  142.6451  161.6589 C.ar    1  UNL1        0.0300
     25 C         137.9212  143.4677  162.8441 C.ar    1  UNL1        0.1401
     26 F         137.7430  144.9504  162.7026 F       1  UNL1       -0.2042
     27 C         137.6889  142.8077  164.1709 C.ar    1  UNL1        0.0327
     28 C         137.8671  141.3251  164.3124 C.ar    1  UNL1        0.0389
     29 C         138.2775  140.5025  163.1272 C.ar    1  UNL1        0.1365
     30 O         138.4557  139.0198  163.2687 O.3     1  UNL1       -0.4696
     31 C         139.3012  138.4686  164.3784 C.3     1  UNL1        0.2771
     32 C         138.6681  138.0800  165.6815 C.3     1  UNL1        0.3615
     33 F         138.5800  139.0766  166.7992 F       1  UNL1       -0.1942
     34 F         138.1231  136.6949  165.8671 F       1  UNL1       -0.1942
@<TRIPOS>BOND
     1    22    21    1
     2    22    19    1
     3    19     1    1
     4     1     2   ar
     5     2     3   ar
     6     3     4   ar
     7     4     5   ar
     8     5     6   ar
     9     6     7   ar
    10     7    10    1
    11    10    11   ar
    12    11    12   ar
    13    12    13   ar
    14    13    15    1
    15    15    16    1
    16    16    17    1
    17    13    14   ar
    18     7     8   ar
    19     8     9   ar
    20    22    23    1
    21    23    24   ar
    22    24    25   ar
    23    25    26    1
    24    25    27   ar
    25    27    28   ar
    26    28    29   ar
    27    29    30    1
    28    30    31    1
    29    31    32    1
    30    32    33    1
    31    32    34    1
    32     9     1   ar
    33    29    23   ar
    34     8     4   ar
    35    14    10   ar
    36    19    20    1
    37    17    18    1
@<TRIPOS>MOLECULE
*****
 34 37 0 0 0
SMALL
GASTEIGER

@<TRIPOS>ATOM
      1 C         140.1840  141.8115  165.5579 C.ar    1  UNL1        0.1319
      2 C         141.3222  141.5763  166.5061 C.ar    1  UNL1        0.0548
      3 C         142.6366  142.2645  166.2854 C.ar    1  UNL1        0.1049
      4 N         142.8127  143.1879  165.1166 N.ar    1  UNL1       -0.2105
      5 N         143.9830  144.0002  164.6466 N.ar    1  UNL1       -0.1621
      6 C         143.5680  144.7374  163.4080 C.ar    1  UNL1        0.1237
      7 C         142.1413  144.3808  163.1124 C.ar    1  UNL1        0.0598
      8 C         141.6745  143.4232  164.1684 C.ar    1  UNL1        0.1667
      9 N         140.3601  142.7350  164.3891 N.ar    1  UNL1       -0.2120
     10 C         141.3247  144.8920  161.9627 C.ar    1  UNL1        0.0442
     11 C         140.1828  145.8605  162.0541 C.ar    1  UNL1        0.1218
     12 N         139.6590  146.0915  160.6676 N.ar    1  UNL1       -0.1676
     13 N         140.4771  145.2659  159.7194 N.ar    1  UNL1       -0.2468
     14 C         141.5065  144.5246  160.5198 C.ar    1  UNL1        0.0968
     15 C         140.2973  145.1943  158.2320 C.3     1  UNL1        0.1591
     16 C         141.1222  146.0677  157.3338 C.3     1  UNL1        0.1635
     17 O         142.5615  146.3337  157.6620 O.3     1  UNL1       -0.3799
     18 H         142.6164  146.8474  158.4829 H       1  UNL1        0.2105
     19 N         138.8695  141.1233  165.7786 N.pl3   1  UNL1       -0.3159
     20 H         138.0989  141.6319  166.1202 H       1  UNL1        0.1484
     21 C         138.1429  138.7372  166.5053 C.3     1  UNL1        0.0262
     22 C         138.7293  139.6603  165.4787 C.3     1  UNL1        0.0960
     23 C         139.1754  139.1205  164.1522 C.ar    1  UNL1        0.0317
     24 C         138.3718  139.4049  162.9180 C.ar    1  UNL1        0.0300
     25 C         138.8178  138.8651  161.5916 C.ar    1  UNL1        0.1401
     26 F         138.0142  139.1496  160.3574 F       1  UNL1       -0.2042
     27 C         140.0676  138.0408  161.4993 C.ar    1  UNL1        0.0327
     28 C         140.8713  137.7563  162.7335 C.ar    1  UNL1        0.0389
     29 C         140.4252  138.2961  164.0599 C.ar    1  UNL1        0.1365
     30 O         141.2288  138.0117  165.2941 O.3     1  UNL1       -0.4696
     31 C         142.6653  138.4371  165.3683 C.3     1  UNL1        0.2771
     32 C         143.4193  138.3104  166.6588 C.3     1  UNL1        0.3615
     33 F         143.1556  139.2724  167.7791 F       1  UNL1       -0.1942
     34 F         144.4370  137.2217  166.8290 F       1  UNL1       -0.1942
@<TRIPOS>BOND
     1    22    21    1
     2    22    19    1
     3    19     1    1
     4     1     2   ar
     5     2     3   ar
     6     3     4   ar
     7     4     5   ar
     8     5     6   ar
     9     6     7   ar
    10     7    10    1
    11    10    11   ar
    12    11    12   ar
    13    12    13   ar
    14    13    15    1
    15    15    16    1
    16    16    17    1
    17    13    14   ar
    18     7     8   ar
    19     8     9   ar
    20    22    23    1
    21    23    24   ar
    22    24    25   ar
    23    25    26    1
    24    25    27   ar
    25    27    28   ar
    26    28    29   ar
    27    29    30    1
    28    30    31    1
    29    31    32    1
    30    32    33    1
    31    32    34    1
    32     9     1   ar
    33    29    23   ar
    34     8     4   ar
    35    14    10   ar
    36    19    20    1
    37    17    18    1
@<TRIPOS>MOLECULE
*****
 34 37 0 0 0
SMALL
GASTEIGER

@<TRIPOS>ATOM
      1 C         141.9253  141.7860  161.9496 C.ar    1  UNL1        0.1319
      2 C         142.3127  140.9935  160.7364 C.ar    1  UNL1        0.0548
      3 C         142.0866  139.5110  160.7053 C.ar    1  UNL1        0.1049
      4 N         141.4730  138.8210  161.8874 N.ar    1  UNL1       -0.2105
      5 N         141.1316  137.3831  162.1444 N.ar    1  UNL1       -0.1621
      6 C         140.5332  137.2869  163.5165 C.ar    1  UNL1        0.1237
      7 C         140.5047  138.6653  164.1074 C.ar    1  UNL1        0.0598
      8 C         141.0855  139.6134  163.1006 C.ar    1  UNL1        0.1667
      9 N         141.3117  141.0959  163.1317 N.ar    1  UNL1       -0.2120
     10 C         139.9864  139.0314  165.4666 C.ar    1  UNL1        0.0442
     11 C         138.6476  138.6570  166.0299 C.ar    1  UNL1        0.1218
     12 N         138.5497  139.2304  167.4126 N.ar    1  UNL1       -0.1676
     13 N         139.8281  139.9592  167.7038 N.ar    1  UNL1       -0.2468
     14 C         140.7160  139.8362  166.5011 C.ar    1  UNL1        0.0968
     15 C         140.1601  140.6837  168.9745 C.3     1  UNL1        0.1591
     16 C         139.5872  140.2125  170.2782 C.3     1  UNL1        0.1635
     17 O         138.1335  139.8549  170.3731 O.3     1  UNL1       -0.3799
     18 H         137.5953  140.6505  170.2374 H       1  UNL1        0.2105
     19 N         142.1514  143.2685  161.9807 N.pl3   1  UNL1       -0.3159
     20 H         143.0579  143.6253  162.1231 H       1  UNL1        0.1484
     21 C         141.0087  145.1978  160.6685 C.3     1  UNL1        0.0262
     22 C         140.9965  144.2074  161.7950 C.3     1  UNL1        0.0960
     23 C         139.8293  144.1561  162.7358 C.ar    1  UNL1        0.0317
     24 C         139.9528  144.7302  164.1161 C.ar    1  UNL1        0.0300
     25 C         138.7857  144.6788  165.0569 C.ar    1  UNL1        0.1401
     26 F         138.9091  145.2529  166.4372 F       1  UNL1       -0.2042
     27 C         137.4951  144.0533  164.6175 C.ar    1  UNL1        0.0327
     28 C         137.3716  143.4792  163.2372 C.ar    1  UNL1        0.0389
     29 C         138.5387  143.5306  162.2964 C.ar    1  UNL1        0.1365
     30 O         138.4153  142.9565  160.9161 O.3     1  UNL1       -0.4696
     31 C         138.6903  141.5006  160.6820 C.3     1  UNL1        0.2771
     32 C         137.7758  140.4620  161.2607 C.3     1  UNL1        0.3615
     33 F         137.7944  140.1837  162.7346 F       1  UNL1       -0.1942
     34 F         136.8427  139.7017  160.3656 F       1  UNL1       -0.1942
@<TRIPOS>BOND
     1    22    21    1
     2    22    19    1
     3    19     1    1
     4     1     2   ar
     5     2     3   ar
     6     3     4   ar
     7     4     5   ar
     8     5     6   ar
     9     6     7   ar
    10     7    10    1
    11    10    11   ar
    12    11    12   ar
    13    12    13   ar
    14    13    15    1
    15    15    16    1
    16    16    17    1
    17    13    14   ar
    18     7     8   ar
    19     8     9   ar
    20    22    23    1
    21    23    24   ar
    22    24    25   ar
    23    25    26    1
    24    25    27   ar
    25    27    28   ar
    26    28    29   ar
    27    29    30    1
    28    30    31    1
    29    31    32    1
    30    32    33    1
    31    32    34    1
    32     9     1   ar
    33    29    23   ar
    34     8     4   ar
    35    14    10   ar
    36    19    20    1
    37    17    18    1
@<TRIPOS>MOLECULE
*****
 34 37 0 0 0
SMALL
GASTEIGER

@<TRIPOS>ATOM
      1 C         140.1804  142.6459  162.7766 C.ar    1  UNL1        0.1319
      2 C         140.7612  143.7115  161.8952 C.ar    1  UNL1        0.0548
      3 C         142.0679  144.3534  162.2561 C.ar    1  UNL1        0.1049
      4 N         142.7938  143.9297  163.4985 N.ar    1  UNL1       -0.2105
      5 N         144.0895  144.3788  164.1066 N.ar    1  UNL1       -0.1621
      6 C         144.3093  143.5907  165.3638 C.ar    1  UNL1        0.1237
      7 C         143.1496  142.6545  165.5327 C.ar    1  UNL1        0.0598
      8 C         142.2129  142.8640  164.3799 C.ar    1  UNL1        0.1667
      9 N         140.9062  142.2221  164.0190 N.ar    1  UNL1       -0.2120
     10 C         142.9597  141.6799  166.6570 C.ar    1  UNL1        0.0442
     11 C         142.7361  140.2034  166.5157 C.ar    1  UNL1        0.1218
     12 N         142.5984  139.6217  167.8915 N.ar    1  UNL1       -0.1676
     13 N         142.7368  140.7386  168.8831 N.ar    1  UNL1       -0.2468
     14 C         142.9602  142.0106  168.1202 C.ar    1  UNL1        0.0968
     15 C         142.6647  140.6067  170.3754 C.3     1  UNL1        0.1591
     16 C         141.6012  141.3354  171.1422 C.3     1  UNL1        0.1635
     17 O         140.6821  140.5782  172.0543 O.3     1  UNL1       -0.3799
     18 H         140.1246  139.9825  171.5297 H       1  UNL1        0.2105
     19 N         138.8735  142.0039  162.4156 N.pl3   1  UNL1       -0.3159
     20 H         138.0262  142.4307  162.6785 H       1  UNL1        0.1484
     21 C         138.0560  140.5949  160.3917 C.3     1  UNL1        0.0262
     22 C         138.8578  140.7117  161.6540 C.3     1  UNL1        0.0960
     23 C         139.6439  139.5364  162.1547 C.ar    1  UNL1        0.0317
     24 C         140.8049  139.0169  161.3596 C.ar    1  UNL1        0.0300
     25 C         141.5909  137.8416  161.8603 C.ar    1  UNL1        0.1401
     26 F         142.7519  137.3222  161.0651 F       1  UNL1       -0.2042
     27 C         141.2160  137.1857  163.1561 C.ar    1  UNL1        0.0327
     28 C         140.0550  137.7052  163.9512 C.ar    1  UNL1        0.0389
     29 C         139.2689  138.8805  163.4506 C.ar    1  UNL1        0.1365
     30 O         138.1079  139.3999  164.2457 O.3     1  UNL1       -0.4696
     31 C         138.3269  139.9385  165.6284 C.3     1  UNL1        0.2771
     32 C         138.2057  139.0293  166.8154 C.3     1  UNL1        0.3615
     33 F         138.7969  139.4337  168.1333 F       1  UNL1       -0.1942
     34 F         137.4933  137.7159  166.6844 F       1  UNL1       -0.1942
@<TRIPOS>BOND
     1    22    21    1
     2    22    19    1
     3    19     1    1
     4     1     2   ar
     5     2     3   ar
     6     3     4   ar
     7     4     5   ar
     8     5     6   ar
     9     6     7   ar
    10     7    10    1
    11    10    11   ar
    12    11    12   ar
    13    12    13   ar
    14    13    15    1
    15    15    16    1
    16    16    17    1
    17    13    14   ar
    18     7     8   ar
    19     8     9   ar
    20    22    23    1
    21    23    24   ar
    22    24    25   ar
    23    25    26    1
    24    25    27   ar
    25    27    28   ar
    26    28    29   ar
    27    29    30    1
    28    30    31    1
    29    31    32    1
    30    32    33    1
    31    32    34    1
    32     9     1   ar
    33    29    23   ar
    34     8     4   ar
    35    14    10   ar
    36    19    20    1
    37    17    18    1
@<TRIPOS>MOLECULE
*****
 34 37 0 0 0
SMALL
GASTEIGER

@<TRIPOS>ATOM
      1 C         143.2978  143.4588  162.9251 C.ar    1  UNL1        0.1319
      2 C         144.4667  143.0054  162.1017 C.ar    1  UNL1        0.0548
      3 C         145.1389  141.7001  162.4086 C.ar    1  UNL1        0.1049
      4 N         144.6422  140.8481  163.5388 N.ar    1  UNL1       -0.2105
      5 N         145.0998  139.5234  164.0735 N.ar    1  UNL1       -0.1621
      6 C         144.2137  139.1581  165.2273 C.ar    1  UNL1        0.1237
      7 C         143.2084  140.2571  165.4057 C.ar    1  UNL1        0.0598
      8 C         143.4732  141.3015  164.3622 C.ar    1  UNL1        0.1667
      9 N         142.8010  142.6068  164.0553 N.ar    1  UNL1       -0.2120
     10 C         142.1279  140.3034  166.4451 C.ar    1  UNL1        0.0442
     11 C         140.6911  140.6629  166.2079 C.ar    1  UNL1        0.1218
     12 N         139.9697  140.5801  167.5205 N.ar    1  UNL1       -0.1676
     13 N         140.9607  140.1693  168.5689 N.ar    1  UNL1       -0.2468
     14 C         142.2945  139.9983  167.9044 C.ar    1  UNL1        0.0968
     15 C         140.6691  139.9653  170.0260 C.3     1  UNL1        0.1591
     16 C         141.1339  140.9757  171.0325 C.3     1  UNL1        0.1635
     17 O         142.2647  140.6444  171.9607 O.3     1  UNL1       -0.3799
     18 H         141.9930  139.9316  172.5598 H       1  UNL1        0.2105
     19 N         142.6255  144.7642  162.6182 N.pl3   1  UNL1       -0.3159
     20 H         143.1056  145.6113  162.7635 H       1  UNL1        0.1484
     21 C         140.9524  145.2420  160.6888 C.3     1  UNL1        0.0262
     22 C         141.2217  144.7789  162.0899 C.3     1  UNL1        0.0960
     23 C         140.0871  144.3304  162.9627 C.ar    1  UNL1        0.0317
     24 C         139.6965  145.1431  164.1614 C.ar    1  UNL1        0.0300
     25 C         138.5619  144.6948  165.0341 C.ar    1  UNL1        0.1401
     26 F         138.1713  145.5075  166.2328 F       1  UNL1       -0.2042
     27 C         137.8181  143.4337  164.7082 C.ar    1  UNL1        0.0327
     28 C         138.2087  142.6210  163.5095 C.ar    1  UNL1        0.0389
     29 C         139.3432  143.0694  162.6367 C.ar    1  UNL1        0.1365
     30 O         139.7339  142.2567  161.4380 O.3     1  UNL1       -0.4696
     31 C         140.7726  141.1822  161.5665 C.3     1  UNL1        0.2771
     32 C         140.4677  139.9326  162.3382 C.3     1  UNL1        0.3615
     33 F         141.5846  139.0403  162.7925 F       1  UNL1       -0.1942
     34 F         139.0459  139.5753  162.6556 F       1  UNL1       -0.1942
@<TRIPOS>BOND
     1    22    21    1
     2    22    19    1
     3    19     1    1
     4     1     2   ar
     5     2     3   ar
     6     3     4   ar
     7     4     5   ar
     8     5     6   ar
     9     6     7   ar
    10     7    10    1
    11    10    11   ar
    12    11    12   ar
    13    12    13   ar
    14    13    15    1
    15    15    16    1
    16    16    17    1
    17    13    14   ar
    18     7     8   ar
    19     8     9   ar
    20    22    23    1
    21    23    24   ar
    22    24    25   ar
    23    25    26    1
    24    25    27   ar
    25    27    28   ar
    26    28    29   ar
    27    29    30    1
    28    30    31    1
    29    31    32    1
    30    32    33    1
    31    32    34    1
    32     9     1   ar
    33    29    23   ar
    34     8     4   ar
    35    14    10   ar
    36    19    20    1
    37    17    18    1
@<TRIPOS>MOLECULE
*****
 34 37 0 0 0
SMALL
GASTEIGER

@<TRIPOS>ATOM
      1 C         141.4877  138.9859  164.5895 C.ar    1  UNL1        0.1319
      2 C         142.5602  138.4638  165.4990 C.ar    1  UNL1        0.0548
      3 C         143.9508  139.0196  165.4151 C.ar    1  UNL1        0.1049
      4 N         144.2690  140.0975  164.4217 N.ar    1  UNL1       -0.2105
      5 N         145.5389  140.8333  164.1113 N.ar    1  UNL1       -0.1621
      6 C         145.2512  141.8101  163.0099 C.ar    1  UNL1        0.1237
      7 C         143.8036  141.6780  162.6397 C.ar    1  UNL1        0.0598
      8 C         143.1966  140.6196  163.5122 C.ar    1  UNL1        0.1667
      9 N         141.8060  140.0638  163.5961 N.ar    1  UNL1       -0.2120
     10 C         143.0885  142.4661  161.5825 C.ar    1  UNL1        0.0442
     11 C         143.0514  142.1455  160.1176 C.ar    1  UNL1        0.1218
     12 N         142.2249  143.1944  159.4344 N.ar    1  UNL1       -0.1676
     13 N         141.7512  144.1632  160.4769 N.ar    1  UNL1       -0.2468
     14 C         142.2849  143.7131  161.8045 C.ar    1  UNL1        0.0968
     15 C         140.8943  145.3701  160.2345 C.3     1  UNL1        0.1591
     16 C         139.9204  145.8213  161.2823 C.3     1  UNL1        0.1635
     17 O         140.3829  146.6972  162.4088 O.3     1  UNL1       -0.3799
     18 H         141.0052  146.2048  162.9667 H       1  UNL1        0.2105
     19 N         140.0970  138.4301  164.6733 N.pl3   1  UNL1       -0.3159
     20 H         139.9148  137.5116  164.3693 H       1  UNL1        0.1484
     21 C         138.3223  138.8965  166.5126 C.3     1  UNL1        0.0262
     22 C         138.9839  139.2737  165.2203 C.3     1  UNL1        0.0960
     23 C         138.5322  140.4946  164.4750 C.ar    1  UNL1        0.0317
     24 C         138.6901  141.8520  165.0935 C.ar    1  UNL1        0.0300
     25 C         138.2385  143.0729  164.3482 C.ar    1  UNL1        0.1401
     26 F         138.3964  144.4303  164.9667 F       1  UNL1       -0.2042
     27 C         137.6290  142.9364  162.9845 C.ar    1  UNL1        0.0327
     28 C         137.4711  141.5790  162.3660 C.ar    1  UNL1        0.0389
     29 C         137.9227  140.3581  163.1112 C.ar    1  UNL1        0.1365
     30 O         137.7648  139.0007  162.4928 O.3     1  UNL1       -0.4696
     31 C         138.4060  138.6998  161.1705 C.3     1  UNL1        0.2771
     32 C         139.8908  138.8371  161.0084 C.3     1  UNL1        0.3615
     33 F         140.7984  137.7227  161.4378 F       1  UNL1       -0.1942
     34 F         140.4681  140.0889  160.4170 F       1  UNL1       -0.1942
@<TRIPOS>BOND
     1    22    21    1
     2    22    19    1
     3    19     1    1
     4     1     2   ar
     5     2     3   ar
     6     3     4   ar
     7     4     5   ar
     8     5     6   ar
     9     6     7   ar
    10     7    10    1
    11    10    11   ar
    12    11    12   ar
    13    12    13   ar
    14    13    15    1
    15    15    16    1
    16    16    17    1
    17    13    14   ar
    18     7     8   ar
    19     8     9   ar
    20    22    23    1
    21    23    24   ar
    22    24    25   ar
    23    25    26    1
    24    25    27   ar
    25    27    28   ar
    26    28    29   ar
    27    29    30    1
    28    30    31    1
    29    31    32    1
    30    32    33    1
    31    32    34    1
    32     9     1   ar
    33    29    23   ar
    34     8     4   ar
    35    14    10   ar
    36    19    20    1
    37    17    18    1
