@<TRIPOS>MOLECULE
*****
 37 41 0 0 0
SMALL
GASTEIGER

@<TRIPOS>ATOM
      1 C         139.5492  140.5684  160.6368 C.ar    1  UNL1        0.1533
      2 C         139.6082  140.7399  162.1259 C.ar    1  UNL1        0.0527
      3 C         139.4328  139.5522  163.0251 C.ar    1  UNL1        0.0511
      4 C         139.1984  138.1931  162.4354 C.ar    1  UNL1        0.0160
      5 C         139.1394  138.0216  160.9464 C.ar    1  UNL1        0.0190
      6 C         139.3148  139.2093  160.0471 C.ar    1  UNL1        0.0850
      7 N         139.4918  139.7237  164.5141 N.pl3   1  UNL1       -0.3040
      8 C         140.6523  140.4377  165.1413 C.3     1  UNL1        0.1124
      9 C         140.7114  140.6092  166.6304 C.3     1  UNL1        0.1164
     10 N         139.6100  140.0668  167.4920 N.am    1  UNL1       -0.2605
     11 C         139.6690  140.2383  168.9811 C.2     1  UNL1        0.3074
     12 O         138.5676  139.6958  169.8428 O.2     1  UNL1       -0.2523
     13 N         140.8296  140.9523  169.6083 N.am    1  UNL1       -0.2605
     14 C         140.8887  141.1238  171.0973 C.3     1  UNL1        0.1165
     15 C         141.9310  141.4947  168.7466 C.3     1  UNL1        0.1165
     16 C         138.4495  139.3527  166.8648 C.3     1  UNL1        0.1164
     17 C         138.3904  139.1812  165.3758 C.3     1  UNL1        0.1124
     18 C         138.5236  142.5081  159.2455 C.3     1  UNL1        0.2525
     19 O         139.7246  141.7561  159.7376 O.3     1  UNL1       -0.4701
     20 N         139.2557  139.0378  158.5581 N.pl3   1  UNL1       -0.2802
     21 H         138.4130  139.2029  158.0766 H       1  UNL1        0.1552
     22 C         140.4806  138.6149  157.8027 C.ar    1  UNL1        0.2208
     23 N         141.6374  139.5591  157.6605 N.ar    1  UNL1       -0.2111
     24 C         142.8623  139.1362  156.9050 C.ar    1  UNL1        0.1147
     25 C         142.9304  137.7690  156.2918 C.ar    1  UNL1        0.0960
     26 CL        144.1553  137.3460  155.5363 Cl      1  UNL1       -0.0790
     27 C         141.7736  136.8246  156.4340 C.ar    1  UNL1        0.1138
     28 N         140.5488  137.2476  157.1894 N.ar    1  UNL1       -0.2111
     29 C         141.8417  135.4574  155.8207 C.ar    1  UNL1        0.1031
     30 C         141.0613  134.9854  154.6299 C.ar    1  UNL1        0.1196
     31 N         141.4396  133.5584  154.3639 N.ar    1  UNL1       -0.2248
     32 C         142.4537  133.1486  155.3903 C.ar    1  UNL1        0.1479
     33 C         143.1830  131.8583  155.6214 C.ar    1  UNL1        0.0374
     34 C         144.1608  131.7418  156.7529 C.ar    1  UNL1        0.0046
     35 C         144.4093  132.9154  157.6532 C.ar    1  UNL1        0.0191
     36 C         143.6801  134.2057  157.4222 C.ar    1  UNL1        0.0815
     37 N         142.7023  134.3223  156.2907 N.ar    1  UNL1       -0.2874
@<TRIPOS>BOND
     1    18    19    1
     2    19     1    1
     3     1     2   ar
     4     2     3   ar
     5     3     7    1
     6     7     8    1
     7     8     9    1
     8     9    10    1
     9    10    11   am
    10    11    12    2
    11    11    13   am
    12    13    14    1
    13    13    15    1
    14    10    16    1
    15    16    17    1
    16     3     4   ar
    17     4     5   ar
    18     5     6   ar
    19     6    20    1
    20    20    22    1
    21    22    23   ar
    22    23    24   ar
    23    24    25   ar
    24    25    26    1
    25    25    27   ar
    26    27    29    1
    27    29    30   ar
    28    30    31   ar
    29    31    32   ar
    30    32    33   ar
    31    33    34   ar
    32    34    35   ar
    33    35    36   ar
    34    36    37   ar
    35    27    28   ar
    36     6     1   ar
    37    28    22   ar
    38    17     7    1
    39    37    29   ar
    40    37    32   ar
    41    20    21    1
@<TRIPOS>MOLECULE
*****
 37 41 0 0 0
SMALL
GASTEIGER

@<TRIPOS>ATOM
      1 C         143.7261  139.4354  160.8080 C.ar    1  UNL1        0.1533
      2 C         144.0630  140.3626  159.6779 C.ar    1  UNL1        0.0527
      3 C         143.4762  140.1306  158.3171 C.ar    1  UNL1        0.0511
      4 C         142.5524  138.9716  158.0863 C.ar    1  UNL1        0.0160
      5 C         142.2156  138.0445  159.2163 C.ar    1  UNL1        0.0190
      6 C         142.8024  138.2764  160.5772 C.ar    1  UNL1        0.0850
      7 N         143.8131  141.0578  157.1871 N.pl3   1  UNL1       -0.3040
      8 C         145.2461  141.3825  156.8854 C.3     1  UNL1        0.1124
      9 C         145.5832  142.3097  155.7554 C.3     1  UNL1        0.1164
     10 N         144.4872  142.9120  154.9272 N.am    1  UNL1       -0.2605
     11 C         144.8241  143.8392  153.7972 C.2     1  UNL1        0.3074
     12 O         143.7282  144.4416  152.9690 O.2     1  UNL1       -0.2523
     13 N         146.2571  144.1640  153.4955 N.am    1  UNL1       -0.2605
     14 C         146.5942  145.0911  152.3656 C.3     1  UNL1        0.1165
     15 C         147.3531  143.5617  154.3237 C.3     1  UNL1        0.1165
     16 C         143.0542  142.5873  155.2289 C.3     1  UNL1        0.1164
     17 C         142.7171  141.6601  156.3589 C.3     1  UNL1        0.1124
     18 C         144.8577  141.0173  162.5305 C.3     1  UNL1        0.2525
     19 O         144.3130  139.6674  162.1688 O.3     1  UNL1       -0.4701
     20 N         142.4654  137.3492  161.7071 N.pl3   1  UNL1       -0.2802
     21 H         142.9284  136.4842  161.7889 H       1  UNL1        0.1552
     22 C         141.4231  137.7399  162.7126 C.ar    1  UNL1        0.2208
     23 N         141.1752  136.8730  163.9113 N.ar    1  UNL1       -0.2111
     24 C         140.1329  137.2637  164.9168 C.ar    1  UNL1        0.1147
     25 C         139.3385  138.5213  164.7235 C.ar    1  UNL1        0.0960
     26 CL        138.2962  138.9120  165.7290 Cl      1  UNL1       -0.0790
     27 C         139.5865  139.3883  163.5247 C.ar    1  UNL1        0.1138
     28 N         140.6288  138.9976  162.5193 N.ar    1  UNL1       -0.2111
     29 C         138.7922  140.6460  163.3315 C.ar    1  UNL1        0.1031
     30 C         137.7052  140.8555  162.3192 C.ar    1  UNL1        0.1196
     31 N         137.1866  142.2539  162.4787 N.ar    1  UNL1       -0.2248
     32 C         137.9530  142.9087  163.5895 C.ar    1  UNL1        0.1479
     33 C         137.8755  144.2814  164.1892 C.ar    1  UNL1        0.0374
     34 C         138.7904  144.6603  165.3159 C.ar    1  UNL1        0.0046
     35 C         139.7826  143.6665  165.8429 C.ar    1  UNL1        0.0191
     36 C         139.8601  142.2938  165.2433 C.ar    1  UNL1        0.0815
     37 N         138.9453  141.9149  164.1166 N.ar    1  UNL1       -0.2874
@<TRIPOS>BOND
     1    18    19    1
     2    19     1    1
     3     1     2   ar
     4     2     3   ar
     5     3     7    1
     6     7     8    1
     7     8     9    1
     8     9    10    1
     9    10    11   am
    10    11    12    2
    11    11    13   am
    12    13    14    1
    13    13    15    1
    14    10    16    1
    15    16    17    1
    16     3     4   ar
    17     4     5   ar
    18     5     6   ar
    19     6    20    1
    20    20    22    1
    21    22    23   ar
    22    23    24   ar
    23    24    25   ar
    24    25    26    1
    25    25    27   ar
    26    27    29    1
    27    29    30   ar
    28    30    31   ar
    29    31    32   ar
    30    32    33   ar
    31    33    34   ar
    32    34    35   ar
    33    35    36   ar
    34    36    37   ar
    35    27    28   ar
    36     6     1   ar
    37    28    22   ar
    38    17     7    1
    39    37    29   ar
    40    37    32   ar
    41    20    21    1
@<TRIPOS>MOLECULE
*****
 37 41 0 0 0
SMALL
GASTEIGER

@<TRIPOS>ATOM
      1 C         138.9922  139.8812  158.5274 C.ar    1  UNL1        0.1533
      2 C         139.5805  138.5903  158.0399 C.ar    1  UNL1        0.0527
      3 C         140.8781  138.5943  157.2875 C.ar    1  UNL1        0.0511
      4 C         141.5875  139.8891  157.0226 C.ar    1  UNL1        0.0160
      5 C         140.9993  141.1799  157.5101 C.ar    1  UNL1        0.0190
      6 C         139.7016  141.1760  158.2625 C.ar    1  UNL1        0.0850
      7 N         141.4663  137.3034  156.8001 N.pl3   1  UNL1       -0.3040
      8 C         140.8344  136.5788  155.6487 C.3     1  UNL1        0.1124
      9 C         141.4226  135.2879  155.1612 C.3     1  UNL1        0.1164
     10 N         142.6426  134.7216  155.8250 N.am    1  UNL1       -0.2605
     11 C         143.2308  133.4307  155.3376 C.2     1  UNL1        0.3074
     12 O         144.4509  132.8644  156.0015 O.2     1  UNL1       -0.2523
     13 N         142.5989  132.7061  154.1862 N.am    1  UNL1       -0.2605
     14 C         143.1870  131.4152  153.6987 C.3     1  UNL1        0.1165
     15 C         141.3788  133.2725  153.5223 C.3     1  UNL1        0.1165
     16 C         143.2745  135.4462  156.9764 C.3     1  UNL1        0.1164
     17 C         142.6864  136.7371  157.4640 C.3     1  UNL1        0.1124
     18 C         137.6746  139.5295  160.7388 C.3     1  UNL1        0.2525
     19 O         137.6945  139.8772  159.2798 O.3     1  UNL1       -0.4701
     20 N         139.1134  142.4669  158.7500 N.pl3   1  UNL1       -0.2802
     21 H         138.6358  143.0577  158.1238 H       1  UNL1        0.1552
     22 C         139.2528  142.8577  160.1915 C.ar    1  UNL1        0.2208
     23 N         138.0297  143.1234  161.0181 N.ar    1  UNL1       -0.2111
     24 C         138.1692  143.5141  162.4596 C.ar    1  UNL1        0.1147
     25 C         139.5317  143.6392  163.0744 C.ar    1  UNL1        0.0960
     26 CL        139.6711  144.0300  164.5158 Cl      1  UNL1       -0.0790
     27 C         140.7548  143.3735  162.2476 C.ar    1  UNL1        0.1138
     28 N         140.6153  142.9828  160.8062 N.ar    1  UNL1       -0.2111
     29 C         142.1173  143.4986  162.8624 C.ar    1  UNL1        0.1031
     30 C         142.7729  144.7744  163.3011 C.ar    1  UNL1        0.1196
     31 N         144.1242  144.4341  163.8562 N.ar    1  UNL1       -0.2248
     32 C         144.3038  142.9479  163.7606 C.ar    1  UNL1        0.1479
     33 C         145.4364  142.0465  164.1534 C.ar    1  UNL1        0.0374
     34 C         145.3288  140.5668  163.9321 C.ar    1  UNL1        0.0046
     35 C         144.0884  139.9887  163.3178 C.ar    1  UNL1        0.0191
     36 C         142.9558  140.8901  162.9250 C.ar    1  UNL1        0.0815
     37 N         143.0634  142.3697  163.1463 N.ar    1  UNL1       -0.2874
@<TRIPOS>BOND
     1    18    19    1
     2    19     1    1
     3     1     2   ar
     4     2     3   ar
     5     3     7    1
     6     7     8    1
     7     8     9    1
     8     9    10    1
     9    10    11   am
    10    11    12    2
    11    11    13   am
    12    13    14    1
    13    13    15    1
    14    10    16    1
    15    16    17    1
    16     3     4   ar
    17     4     5   ar
    18     5     6   ar
    19     6    20    1
    20    20    22    1
    21    22    23   ar
    22    23    24   ar
    23    24    25   ar
    24    25    26    1
    25    25    27   ar
    26    27    29    1
    27    29    30   ar
    28    30    31   ar
    29    31    32   ar
    30    32    33   ar
    31    33    34   ar
    32    34    35   ar
    33    35    36   ar
    34    36    37   ar
    35    27    28   ar
    36     6     1   ar
    37    28    22   ar
    38    17     7    1
    39    37    29   ar
    40    37    32   ar
    41    20    21    1
@<TRIPOS>MOLECULE
*****
 37 41 0 0 0
SMALL
GASTEIGER

@<TRIPOS>ATOM
      1 C         143.9830  140.0190  156.1482 C.ar    1  UNL1        0.1533
      2 C         143.6988  138.5811  155.8290 C.ar    1  UNL1        0.0527
      3 C         142.8732  137.7532  156.7688 C.ar    1  UNL1        0.0511
      4 C         142.3320  138.3632  158.0277 C.ar    1  UNL1        0.0160
      5 C         142.6162  139.8010  158.3469 C.ar    1  UNL1        0.0190
      6 C         143.4417  140.6289  157.4072 C.ar    1  UNL1        0.0850
      7 N         142.5891  136.3154  156.4496 N.pl3   1  UNL1       -0.3040
      8 C         143.3823  135.2289  157.1131 C.3     1  UNL1        0.1124
      9 C         143.0982  133.7910  156.7939 C.3     1  UNL1        0.1164
     10 N         142.0208  133.4398  155.8112 N.am    1  UNL1       -0.2605
     11 C         141.7366  132.0019  155.4919 C.2     1  UNL1        0.3074
     12 O         140.6592  131.6505  154.5092 O.2     1  UNL1       -0.2523
     13 N         142.5298  130.9154  156.1555 N.am    1  UNL1       -0.2605
     14 C         142.2457  129.4776  155.8363 C.3     1  UNL1        0.1165
     15 C         143.6072  131.2668  157.1382 C.3     1  UNL1        0.1165
     16 C         141.2275  134.5262  155.1476 C.3     1  UNL1        0.1164
     17 C         141.5117  135.9641  155.4668 C.3     1  UNL1        0.1124
     18 C         146.2793  141.0144  155.4509 C.3     1  UNL1        0.2525
     19 O         144.8085  140.8468  155.2084 O.3     1  UNL1       -0.4701
     20 N         143.7259  142.0667  157.7264 N.pl3   1  UNL1       -0.2802
     21 H         143.9860  142.6882  157.0085 H       1  UNL1        0.1552
     22 C         143.6138  142.5576  159.1393 C.ar    1  UNL1        0.2208
     23 N         144.7886  142.4506  160.0659 N.ar    1  UNL1       -0.2111
     24 C         144.6765  142.9415  161.4788 C.ar    1  UNL1        0.1147
     25 C         143.3897  143.5395  161.9652 C.ar    1  UNL1        0.0960
     26 CL        143.2776  144.0304  163.3782 Cl      1  UNL1       -0.0790
     27 C         142.2149  143.6465  161.0386 C.ar    1  UNL1        0.1138
     28 N         142.3270  143.1556  159.6257 N.ar    1  UNL1       -0.2111
     29 C         140.9281  144.2445  161.5250 C.ar    1  UNL1        0.1031
     30 C         140.3632  145.5728  161.1167 C.ar    1  UNL1        0.1196
     31 N         139.0663  145.7683  161.8444 N.ar    1  UNL1       -0.2248
     32 C         138.8295  144.5609  162.7024 C.ar    1  UNL1        0.1479
     33 C         137.7148  144.1974  163.6380 C.ar    1  UNL1        0.0374
     34 C         137.7508  142.8921  164.3761 C.ar    1  UNL1        0.0046
     35 C         138.9015  141.9503  164.1787 C.ar    1  UNL1        0.0191
     36 C         140.0162  142.3138  163.2431 C.ar    1  UNL1        0.0815
     37 N         139.9802  143.6191  162.5050 N.ar    1  UNL1       -0.2874
@<TRIPOS>BOND
     1    18    19    1
     2    19     1    1
     3     1     2   ar
     4     2     3   ar
     5     3     7    1
     6     7     8    1
     7     8     9    1
     8     9    10    1
     9    10    11   am
    10    11    12    2
    11    11    13   am
    12    13    14    1
    13    13    15    1
    14    10    16    1
    15    16    17    1
    16     3     4   ar
    17     4     5   ar
    18     5     6   ar
    19     6    20    1
    20    20    22    1
    21    22    23   ar
    22    23    24   ar
    23    24    25   ar
    24    25    26    1
    25    25    27   ar
    26    27    29    1
    27    29    30   ar
    28    30    31   ar
    29    31    32   ar
    30    32    33   ar
    31    33    34   ar
    32    34    35   ar
    33    35    36   ar
    34    36    37   ar
    35    27    28   ar
    36     6     1   ar
    37    28    22   ar
    38    17     7    1
    39    37    29   ar
    40    37    32   ar
    41    20    21    1
@<TRIPOS>MOLECULE
*****
 37 41 0 0 0
SMALL
GASTEIGER

@<TRIPOS>ATOM
      1 C         143.8120  141.2630  160.3701 C.ar    1  UNL1        0.1533
      2 C         143.6973  140.0835  159.4504 C.ar    1  UNL1        0.0527
      3 C         142.7604  140.1334  158.2800 C.ar    1  UNL1        0.0511
      4 C         141.9383  141.3627  158.0292 C.ar    1  UNL1        0.0160
      5 C         142.0530  142.5421  158.9488 C.ar    1  UNL1        0.0190
      6 C         142.9898  142.4923  160.1193 C.ar    1  UNL1        0.0850
      7 N         142.6458  138.9539  157.3605 N.pl3   1  UNL1       -0.3040
      8 C         142.8023  137.5635  157.9011 C.3     1  UNL1        0.1124
      9 C         142.6877  136.3839  156.9815 C.3     1  UNL1        0.1164
     10 N         142.4165  136.5948  155.5215 N.am    1  UNL1       -0.2605
     11 C         142.3019  135.4152  154.6018 C.2     1  UNL1        0.3074
     12 O         142.0308  135.6261  153.1417 O.2     1  UNL1       -0.2523
     13 N         142.4584  134.0248  155.1425 N.am    1  UNL1       -0.2605
     14 C         142.3438  132.8453  154.2230 C.3     1  UNL1        0.1165
     15 C         142.7296  133.8140  156.6026 C.3     1  UNL1        0.1165
     16 C         142.2600  137.9852  154.9808 C.3     1  UNL1        0.1164
     17 C         142.3747  139.1647  155.9003 C.3     1  UNL1        0.1124
     18 C         144.3541  140.4767  162.7862 C.3     1  UNL1        0.2525
     19 O         144.7488  141.2132  161.5405 O.3     1  UNL1       -0.4701
     20 N         143.1045  143.6718  161.0389 N.pl3   1  UNL1       -0.2802
     21 H         143.8938  144.2583  160.9911 H       1  UNL1        0.1552
     22 C         142.0166  143.9578  162.0311 C.ar    1  UNL1        0.2208
     23 N         141.0709  145.0989  161.7992 N.ar    1  UNL1       -0.2111
     24 C         139.9830  145.3849  162.7914 C.ar    1  UNL1        0.1147
     25 C         139.8407  144.5298  164.0157 C.ar    1  UNL1        0.0960
     26 CL        138.7528  144.8158  165.0079 Cl      1  UNL1       -0.0790
     27 C         140.7864  143.3887  164.2476 C.ar    1  UNL1        0.1138
     28 N         141.8743  143.1028  163.2553 N.ar    1  UNL1       -0.2111
     29 C         140.6441  142.5337  165.4718 C.ar    1  UNL1        0.1031
     30 C         141.3730  142.7231  166.7691 C.ar    1  UNL1        0.1196
     31 N         140.9273  141.6456  167.7127 N.ar    1  UNL1       -0.2248
     32 C         139.9230  140.7903  166.9986 C.ar    1  UNL1        0.1479
     33 C         139.1452  139.5827  167.4306 C.ar    1  UNL1        0.0374
     34 C         138.1924  138.9240  166.4776 C.ar    1  UNL1        0.0046
     35 C         138.0174  139.4729  165.0926 C.ar    1  UNL1        0.0191
     36 C         138.7952  140.6805  164.6607 C.ar    1  UNL1        0.0815
     37 N         139.7479  141.3393  165.6137 N.ar    1  UNL1       -0.2874
@<TRIPOS>BOND
     1    18    19    1
     2    19     1    1
     3     1     2   ar
     4     2     3   ar
     5     3     7    1
     6     7     8    1
     7     8     9    1
     8     9    10    1
     9    10    11   am
    10    11    12    2
    11    11    13   am
    12    13    14    1
    13    13    15    1
    14    10    16    1
    15    16    17    1
    16     3     4   ar
    17     4     5   ar
    18     5     6   ar
    19     6    20    1
    20    20    22    1
    21    22    23   ar
    22    23    24   ar
    23    24    25   ar
    24    25    26    1
    25    25    27   ar
    26    27    29    1
    27    29    30   ar
    28    30    31   ar
    29    31    32   ar
    30    32    33   ar
    31    33    34   ar
    32    34    35   ar
    33    35    36   ar
    34    36    37   ar
    35    27    28   ar
    36     6     1   ar
    37    28    22   ar
    38    17     7    1
    39    37    29   ar
    40    37    32   ar
    41    20    21    1
@<TRIPOS>MOLECULE
*****
 37 41 0 0 0
SMALL
GASTEIGER

@<TRIPOS>ATOM
      1 C         139.4141  139.5380  158.0541 C.ar    1  UNL1        0.1533
      2 C         139.8876  138.1719  157.6541 C.ar    1  UNL1        0.0527
      3 C         141.1520  138.0186  156.8618 C.ar    1  UNL1        0.0511
      4 C         141.9431  139.2312  156.4696 C.ar    1  UNL1        0.0160
      5 C         141.4697  140.5971  156.8696 C.ar    1  UNL1        0.0190
      6 C         140.2052  140.7506  157.6619 C.ar    1  UNL1        0.0850
      7 N         141.6254  136.6526  156.4619 N.pl3   1  UNL1       -0.3040
      8 C         142.7569  136.0042  157.2030 C.3     1  UNL1        0.1124
      9 C         143.2303  134.6381  156.8031 C.3     1  UNL1        0.1164
     10 N         142.5722  133.9206  155.6621 N.am    1  UNL1       -0.2605
     11 C         143.0456  132.5546  155.2621 C.2     1  UNL1        0.3074
     12 O         142.3875  131.8370  154.1210 O.2     1  UNL1       -0.2523
     13 N         144.1770  131.9061  156.0032 N.am    1  UNL1       -0.2605
     14 C         144.6505  130.5401  155.6033 C.3     1  UNL1        0.1165
     15 C         144.8351  132.6237  157.1443 C.3     1  UNL1        0.1165
     16 C         141.4407  134.5691  154.9209 C.3     1  UNL1        0.1164
     17 C         140.9673  135.9350  155.3208 C.3     1  UNL1        0.1124
     18 C         138.1972  139.6745  160.3455 C.3     1  UNL1        0.2525
     19 O         138.1497  139.6913  158.8463 O.3     1  UNL1       -0.4701
     20 N         139.7318  142.1165  158.0618 N.pl3   1  UNL1       -0.2802
     21 H         139.0311  142.5677  157.5378 H       1  UNL1        0.1552
     22 C         140.3261  142.7952  159.2603 C.ar    1  UNL1        0.2208
     23 N         139.7244  144.0686  159.7762 N.ar    1  UNL1       -0.2111
     24 C         140.3187  144.7473  160.9746 C.ar    1  UNL1        0.1147
     25 C         141.5147  144.1525  161.6571 C.ar    1  UNL1        0.0960
     26 CL        142.1090  144.8312  162.8555 Cl      1  UNL1       -0.0790
     27 C         142.1165  142.8790  161.1411 C.ar    1  UNL1        0.1138
     28 N         141.5222  142.2004  159.9427 N.ar    1  UNL1       -0.2111
     29 C         143.3125  142.2843  161.8235 C.ar    1  UNL1        0.1031
     30 C         144.7430  142.6724  161.5927 C.ar    1  UNL1        0.1196
     31 N         145.6026  141.8249  162.4832 N.ar    1  UNL1       -0.2248
     32 C         144.7034  140.9131  163.2643 C.ar    1  UNL1        0.1479
     33 C         144.9906  139.8610  164.2941 C.ar    1  UNL1        0.0374
     34 C         143.8625  139.0928  164.9162 C.ar    1  UNL1        0.0046
     35 C         142.4471  139.3766  164.5085 C.ar    1  UNL1        0.0191
     36 C         142.1599  140.4288  163.4787 C.ar    1  UNL1        0.0815
     37 N         143.2881  141.1970  162.8566 N.ar    1  UNL1       -0.2874
@<TRIPOS>BOND
     1    18    19    1
     2    19     1    1
     3     1     2   ar
     4     2     3   ar
     5     3     7    1
     6     7     8    1
     7     8     9    1
     8     9    10    1
     9    10    11   am
    10    11    12    2
    11    11    13   am
    12    13    14    1
    13    13    15    1
    14    10    16    1
    15    16    17    1
    16     3     4   ar
    17     4     5   ar
    18     5     6   ar
    19     6    20    1
    20    20    22    1
    21    22    23   ar
    22    23    24   ar
    23    24    25   ar
    24    25    26    1
    25    25    27   ar
    26    27    29    1
    27    29    30   ar
    28    30    31   ar
    29    31    32   ar
    30    32    33   ar
    31    33    34   ar
    32    34    35   ar
    33    35    36   ar
    34    36    37   ar
    35    27    28   ar
    36     6     1   ar
    37    28    22   ar
    38    17     7    1
    39    37    29   ar
    40    37    32   ar
    41    20    21    1
@<TRIPOS>MOLECULE
*****
 37 41 0 0 0
SMALL
GASTEIGER

@<TRIPOS>ATOM
      1 C         141.8461  139.7006  158.1262 C.ar    1  UNL1        0.1533
      2 C         142.3039  138.3676  157.6127 C.ar    1  UNL1        0.0527
      3 C         141.3334  137.4567  156.9210 C.ar    1  UNL1        0.0511
      4 C         139.9051  137.8789  156.7426 C.ar    1  UNL1        0.0160
      5 C         139.4473  139.2119  157.2561 C.ar    1  UNL1        0.0190
      6 C         140.4178  140.1228  157.9478 C.ar    1  UNL1        0.0850
      7 N         141.7912  136.1238  156.4076 N.pl3   1  UNL1       -0.3040
      8 C         142.9443  135.4235  157.0632 C.3     1  UNL1        0.1124
      9 C         143.4022  134.0904  156.5499 C.3     1  UNL1        0.1164
     10 N         142.7070  133.4579  155.3809 N.am    1  UNL1       -0.2605
     11 C         143.1649  132.1249  154.8675 C.2     1  UNL1        0.3074
     12 O         142.4697  131.4923  153.6985 O.2     1  UNL1       -0.2523
     13 N         144.3180  131.4245  155.5232 N.am    1  UNL1       -0.2605
     14 C         144.7759  130.0916  155.0098 C.3     1  UNL1        0.1165
     15 C         145.0132  132.0571  156.6921 C.3     1  UNL1        0.1165
     16 C         141.5539  134.1583  154.7253 C.3     1  UNL1        0.1164
     17 C         141.0960  135.4912  155.2386 C.3     1  UNL1        0.1124
     18 C         143.5825  140.1237  160.0118 C.3     1  UNL1        0.2525
     19 O         142.8166  140.6115  158.8179 O.3     1  UNL1       -0.4701
     20 N         139.9599  141.4557  158.4612 N.pl3   1  UNL1       -0.2802
     21 H         139.9726  142.2421  157.8690 H       1  UNL1        0.1552
     22 C         139.4827  141.5906  159.8769 C.ar    1  UNL1        0.2208
     23 N         138.5446  142.7001  160.2496 N.ar    1  UNL1       -0.2111
     24 C         138.0674  142.8350  161.6652 C.ar    1  UNL1        0.1147
     25 C         138.5283  141.8604  162.7081 C.ar    1  UNL1        0.0960
     26 CL        138.0511  141.9953  164.1238 Cl      1  UNL1       -0.0790
     27 C         139.4665  140.7508  162.3354 C.ar    1  UNL1        0.1138
     28 N         139.9437  140.6160  160.9198 N.ar    1  UNL1       -0.2111
     29 C         139.9274  139.7763  163.3784 C.ar    1  UNL1        0.1031
     30 C         139.0765  138.7459  164.0597 C.ar    1  UNL1        0.1196
     31 N         139.9434  137.9938  165.0255 N.ar    1  UNL1       -0.2248
     32 C         141.3302  138.5593  164.9411 C.ar    1  UNL1        0.1479
     33 C         142.6006  138.2135  165.6596 C.ar    1  UNL1        0.0374
     34 C         143.8611  138.9693  165.3602 C.ar    1  UNL1        0.0046
     35 C         143.8513  140.0709  164.3422 C.ar    1  UNL1        0.0191
     36 C         142.5808  140.4168  163.6236 C.ar    1  UNL1        0.0815
     37 N         141.3203  139.6610  163.9231 N.ar    1  UNL1       -0.2874
@<TRIPOS>BOND
     1    18    19    1
     2    19     1    1
     3     1     2   ar
     4     2     3   ar
     5     3     7    1
     6     7     8    1
     7     8     9    1
     8     9    10    1
     9    10    11   am
    10    11    12    2
    11    11    13   am
    12    13    14    1
    13    13    15    1
    14    10    16    1
    15    16    17    1
    16     3     4   ar
    17     4     5   ar
    18     5     6   ar
    19     6    20    1
    20    20    22    1
    21    22    23   ar
    22    23    24   ar
    23    24    25   ar
    24    25    26    1
    25    25    27   ar
    26    27    29    1
    27    29    30   ar
    28    30    31   ar
    29    31    32   ar
    30    32    33   ar
    31    33    34   ar
    32    34    35   ar
    33    35    36   ar
    34    36    37   ar
    35    27    28   ar
    36     6     1   ar
    37    28    22   ar
    38    17     7    1
    39    37    29   ar
    40    37    32   ar
    41    20    21    1
@<TRIPOS>MOLECULE
*****
 37 41 0 0 0
SMALL
GASTEIGER

@<TRIPOS>ATOM
      1 C         140.5074  142.3289  158.4802 C.ar    1  UNL1        0.1533
      2 C         140.6757  140.9897  157.8257 C.ar    1  UNL1        0.0527
      3 C         142.0377  140.3688  157.7275 C.ar    1  UNL1        0.0511
      4 C         143.2312  141.0871  158.2839 C.ar    1  UNL1        0.0160
      5 C         143.0629  142.4262  158.9384 C.ar    1  UNL1        0.0190
      6 C         141.7009  143.0472  159.0366 C.ar    1  UNL1        0.0850
      7 N         142.2060  139.0297  157.0730 N.pl3   1  UNL1       -0.3040
      8 C         142.6594  137.8511  157.8825 C.3     1  UNL1        0.1124
      9 C         142.8277  136.5118  157.2280 C.3     1  UNL1        0.1164
     10 N         142.5426  136.3514  155.7642 N.am    1  UNL1       -0.2605
     11 C         142.7109  135.0122  155.1096 C.2     1  UNL1        0.3074
     12 O         142.4258  134.8517  153.6458 O.2     1  UNL1       -0.2523
     13 N         143.1644  133.8336  155.9191 N.am    1  UNL1       -0.2605
     14 C         143.3327  132.4944  155.2646 C.3     1  UNL1        0.1165
     15 C         143.4495  133.9941  157.3829 C.3     1  UNL1        0.1165
     16 C         142.0892  137.5300  154.9547 C.3     1  UNL1        0.1164
     17 C         141.9208  138.8692  155.6092 C.3     1  UNL1        0.1124
     18 C         138.0488  142.5017  157.6583 C.3     1  UNL1        0.2525
     19 O         139.1454  142.9498  158.5784 O.3     1  UNL1       -0.4701
     20 N         141.5326  144.3863  159.6911 N.pl3   1  UNL1       -0.2802
     21 H         141.8788  145.1961  159.2512 H       1  UNL1        0.1552
     22 C         140.8369  144.4915  161.0158 C.ar    1  UNL1        0.2208
     23 N         139.7509  145.5071  161.2139 N.ar    1  UNL1       -0.2111
     24 C         139.0552  145.6124  162.5386 C.ar    1  UNL1        0.1147
     25 C         139.4454  144.7021  163.6651 C.ar    1  UNL1        0.0960
     26 CL        138.7496  144.8073  164.9898 Cl      1  UNL1       -0.0790
     27 C         140.5314  143.6864  163.4669 C.ar    1  UNL1        0.1138
     28 N         141.2271  143.5812  162.1423 N.ar    1  UNL1       -0.2111
     29 C         140.9216  142.7761  164.5935 C.ar    1  UNL1        0.1031
     30 C         142.1965  142.8441  165.3808 C.ar    1  UNL1        0.1196
     31 N         142.1681  141.7480  166.4044 N.ar    1  UNL1       -0.2248
     32 C         140.8757  141.0025  166.2496 C.ar    1  UNL1        0.1479
     33 C         140.3009  139.8272  166.9832 C.ar    1  UNL1        0.0374
     34 C         138.9556  139.2873  166.5976 C.ar    1  UNL1        0.0046
     35 C         138.1852  139.9228  165.4784 C.ar    1  UNL1        0.0191
     36 C         138.7600  141.0981  164.7448 C.ar    1  UNL1        0.0815
     37 N         140.1053  141.6379  165.1304 N.ar    1  UNL1       -0.2874
@<TRIPOS>BOND
     1    18    19    1
     2    19     1    1
     3     1     2   ar
     4     2     3   ar
     5     3     7    1
     6     7     8    1
     7     8     9    1
     8     9    10    1
     9    10    11   am
    10    11    12    2
    11    11    13   am
    12    13    14    1
    13    13    15    1
    14    10    16    1
    15    16    17    1
    16     3     4   ar
    17     4     5   ar
    18     5     6   ar
    19     6    20    1
    20    20    22    1
    21    22    23   ar
    22    23    24   ar
    23    24    25   ar
    24    25    26    1
    25    25    27   ar
    26    27    29    1
    27    29    30   ar
    28    30    31   ar
    29    31    32   ar
    30    32    33   ar
    31    33    34   ar
    32    34    35   ar
    33    35    36   ar
    34    36    37   ar
    35    27    28   ar
    36     6     1   ar
    37    28    22   ar
    38    17     7    1
    39    37    29   ar
    40    37    32   ar
    41    20    21    1
@<TRIPOS>MOLECULE
*****
 37 41 0 0 0
SMALL
GASTEIGER

@<TRIPOS>ATOM
      1 C         139.0812  140.1488  157.6934 C.ar    1  UNL1        0.1533
      2 C         139.6019  138.8172  157.2396 C.ar    1  UNL1        0.0527
      3 C         141.0791  138.5981  157.0981 C.ar    1  UNL1        0.0511
      4 C         142.0356  139.7105  157.4105 C.ar    1  UNL1        0.0160
      5 C         141.5149  141.0420  157.8643 C.ar    1  UNL1        0.0190
      6 C         140.0378  141.2612  158.0058 C.ar    1  UNL1        0.0850
      7 N         141.5996  137.2666  156.6443 N.pl3   1  UNL1       -0.3040
      8 C         142.5728  136.5107  157.4997 C.3     1  UNL1        0.1124
      9 C         143.0934  135.1791  157.0459 C.3     1  UNL1        0.1164
     10 N         142.6408  134.6035  155.7369 N.am    1  UNL1       -0.2605
     11 C         143.1614  133.2718  155.2830 C.2     1  UNL1        0.3074
     12 O         142.7089  132.6961  153.9739 O.2     1  UNL1       -0.2523
     13 N         144.1346  132.5160  156.1384 N.am    1  UNL1       -0.2605
     14 C         144.6552  131.1844  155.6847 C.3     1  UNL1        0.1165
     15 C         144.5871  133.0917  157.4475 C.3     1  UNL1        0.1165
     16 C         141.6677  135.3593  154.8815 C.3     1  UNL1        0.1164
     17 C         141.1471  136.6909  155.3352 C.3     1  UNL1        0.1124
     18 C         136.8220  140.9617  156.7009 C.3     1  UNL1        0.2525
     19 O         137.6041  140.3679  157.8348 O.3     1  UNL1       -0.4701
     20 N         139.5172  142.5928  158.4596 N.pl3   1  UNL1       -0.2802
     21 H         139.2010  143.2493  157.7976 H       1  UNL1        0.1552
     22 C         139.4784  142.9241  159.9220 C.ar    1  UNL1        0.2208
     23 N         139.6452  144.3447  160.3738 N.ar    1  UNL1       -0.2111
     24 C         139.6064  144.6760  161.8362 C.ar    1  UNL1        0.1147
     25 C         139.4007  143.5868  162.8468 C.ar    1  UNL1        0.0960
     26 CL        139.3619  143.9182  164.3093 Cl      1  UNL1       -0.0790
     27 C         139.2338  142.1662  162.3950 C.ar    1  UNL1        0.1138
     28 N         139.2727  141.8349  160.9326 N.ar    1  UNL1       -0.2111
     29 C         139.0281  141.0770  163.4056 C.ar    1  UNL1        0.1031
     30 C         137.9689  141.0479  164.4672 C.ar    1  UNL1        0.1196
     31 N         138.1317  139.7785  165.2497 N.ar    1  UNL1       -0.2248
     32 C         139.2916  139.0232  164.6717 C.ar    1  UNL1        0.1479
     33 C         139.9148  137.7083  165.0359 C.ar    1  UNL1        0.0374
     34 C         141.0920  137.1959  164.2604 C.ar    1  UNL1        0.0046
     35 C         141.6461  137.9984  163.1206 C.ar    1  UNL1        0.0191
     36 C         141.0229  139.3133  162.7564 C.ar    1  UNL1        0.0815
     37 N         139.8456  139.8256  163.5319 N.ar    1  UNL1       -0.2874
@<TRIPOS>BOND
     1    18    19    1
     2    19     1    1
     3     1     2   ar
     4     2     3   ar
     5     3     7    1
     6     7     8    1
     7     8     9    1
     8     9    10    1
     9    10    11   am
    10    11    12    2
    11    11    13   am
    12    13    14    1
    13    13    15    1
    14    10    16    1
    15    16    17    1
    16     3     4   ar
    17     4     5   ar
    18     5     6   ar
    19     6    20    1
    20    20    22    1
    21    22    23   ar
    22    23    24   ar
    23    24    25   ar
    24    25    26    1
    25    25    27   ar
    26    27    29    1
    27    29    30   ar
    28    30    31   ar
    29    31    32   ar
    30    32    33   ar
    31    33    34   ar
    32    34    35   ar
    33    35    36   ar
    34    36    37   ar
    35    27    28   ar
    36     6     1   ar
    37    28    22   ar
    38    17     7    1
    39    37    29   ar
    40    37    32   ar
    41    20    21    1
