@<TRIPOS>MOLECULE
*****
 29 32 0 0 0
SMALL
GASTEIGER

@<TRIPOS>ATOM
      1 C         139.8092  137.6406  164.6769 C.3     1  UNL1        0.0522
      2 C         141.0461  138.4410  164.9592 C.ar    1  UNL1        0.0637
      3 N         141.2041  139.1371  166.2784 N.ar    1  UNL1       -0.2180
      4 C         142.4410  139.9374  166.5607 C.ar    1  UNL1        0.2198
      5 N         143.5198  140.0416  165.5238 N.ar    1  UNL1       -0.2136
      6 C         143.3618  139.3454  164.2045 C.ar    1  UNL1        0.0854
      7 C         144.4406  139.4496  163.1675 C.ar    1  UNL1        0.0205
      8 C         144.2825  138.7535  161.8483 C.ar    1  UNL1        0.0162
      9 C         143.0457  137.9531  161.5661 C.ar    1  UNL1        0.0505
     10 C         141.9669  137.8490  162.6030 C.ar    1  UNL1        0.0173
     11 C         142.1249  138.5451  163.9222 C.ar    1  UNL1        0.0326
     12 N         142.5990  140.6336  167.8800 N.pl3   1  UNL1       -0.2782
     13 C         142.8238  142.1031  168.0800 C.3     1  UNL1        0.0937
     14 C         142.9237  142.3602  169.5545 C.3     1  UNL1        0.0233
     15 C         142.7605  141.0496  170.2656 C.3     1  UNL1        0.0233
     16 C         142.5598  139.9825  169.2307 C.3     1  UNL1        0.0937
     17 N         142.8877  137.2570  160.2468 N.am    1  UNL1       -0.2809
     18 C         142.4184  138.0234  159.0458 C.2     1  UNL1        0.2707
     19 O         142.1071  139.4859  159.1640 O.2     1  UNL1       -0.2707
     20 H         143.0920  136.2970  160.1692 H       1  UNL1        0.1550
     21 C         142.2604  137.3272  157.7265 C.3     1  UNL1        0.2897
     22 O         143.3500  136.4317  157.2158 O.3     1  UNL1       -0.4656
     23 C         143.0405  135.0126  156.8410 C.ar    1  UNL1        0.1393
     24 C         142.0904  134.7240  155.7167 C.ar    1  UNL1        0.0378
     25 C         141.7809  133.3050  155.3419 C.ar    1  UNL1        0.0145
     26 C         142.4214  132.1745  156.0915 C.ar    1  UNL1        0.0579
     27 CL        142.1119  130.7555  155.7167 Cl      1  UNL1       -0.0822
     28 C         143.3714  132.4631  157.2158 C.ar    1  UNL1        0.0145
     29 C         143.6810  133.8822  157.5906 C.ar    1  UNL1        0.0378
@<TRIPOS>BOND
     1     1     2    1
     2     2     3   ar
     3     3     4   ar
     4     4    12    1
     5    12    13    1
     6    13    14    1
     7    14    15    1
     8    15    16    1
     9     4     5   ar
    10     5     6   ar
    11     6     7   ar
    12     7     8   ar
    13     8     9   ar
    14     9    17    1
    15    17    18   am
    16    18    19    2
    17    18    21    1
    18    21    22    1
    19    22    23    1
    20    23    24   ar
    21    24    25   ar
    22    25    26   ar
    23    26    27    1
    24    26    28   ar
    25    28    29   ar
    26     9    10   ar
    27    10    11   ar
    28    11     2   ar
    29    16    12    1
    30    11     6   ar
    31    29    23   ar
    32    17    20    1
@<TRIPOS>MOLECULE
*****
 29 32 0 0 0
SMALL
GASTEIGER

@<TRIPOS>ATOM
      1 C         140.2151  145.2667  162.8519 C.3     1  UNL1        0.0522
      2 C         139.8866  144.5085  161.6000 C.ar    1  UNL1        0.0637
      3 N         140.2765  145.0643  160.2625 N.ar    1  UNL1       -0.2180
      4 C         139.9481  144.3061  159.0106 C.ar    1  UNL1        0.2198
      5 N         139.2296  142.9922  159.0962 N.ar    1  UNL1       -0.2136
      6 C         138.8397  142.4363  160.4338 C.ar    1  UNL1        0.0854
      7 C         138.1212  141.1224  160.5194 C.ar    1  UNL1        0.0205
      8 C         137.7313  140.5666  161.8569 C.ar    1  UNL1        0.0162
      9 C         138.0598  141.3248  163.1088 C.ar    1  UNL1        0.0505
     10 C         138.7782  142.6388  163.0232 C.ar    1  UNL1        0.0173
     11 C         139.1681  143.1945  161.6857 C.ar    1  UNL1        0.0326
     12 N         140.3380  144.8620  157.6730 N.pl3   1  UNL1       -0.2782
     13 C         140.1340  146.2747  157.2119 C.3     1  UNL1        0.0937
     14 C         140.6704  146.3886  155.8156 C.3     1  UNL1        0.0233
     15 C         141.2058  145.0461  155.4139 C.3     1  UNL1        0.0233
     16 C         141.0004  144.1027  156.5618 C.3     1  UNL1        0.0937
     17 N         137.6698  140.7690  164.4464 N.am    1  UNL1       -0.2809
     18 C         138.4434  139.6289  165.0393 C.2     1  UNL1        0.2707
     19 O         139.6071  139.0445  164.2946 O.2     1  UNL1       -0.2707
     20 H         136.9061  141.1525  164.9351 H       1  UNL1        0.1550
     21 C         138.0535  139.0730  166.3769 C.3     1  UNL1        0.2897
     22 O         139.0534  139.0365  167.4943 O.3     1  UNL1       -0.4656
     23 C         139.5040  140.3134  168.1395 C.ar    1  UNL1        0.1393
     24 C         139.1589  140.5922  169.5725 C.ar    1  UNL1        0.0378
     25 C         139.6095  141.8691  170.2177 C.ar    1  UNL1        0.0145
     26 C         140.4052  142.8673  169.4301 C.ar    1  UNL1        0.0579
     27 CL        140.8558  144.1442  170.0753 Cl      1  UNL1       -0.0822
     28 C         140.7504  142.5886  167.9972 C.ar    1  UNL1        0.0145
     29 C         140.2998  141.3116  167.3519 C.ar    1  UNL1        0.0378
@<TRIPOS>BOND
     1     1     2    1
     2     2     3   ar
     3     3     4   ar
     4     4    12    1
     5    12    13    1
     6    13    14    1
     7    14    15    1
     8    15    16    1
     9     4     5   ar
    10     5     6   ar
    11     6     7   ar
    12     7     8   ar
    13     8     9   ar
    14     9    17    1
    15    17    18   am
    16    18    19    2
    17    18    21    1
    18    21    22    1
    19    22    23    1
    20    23    24   ar
    21    24    25   ar
    22    25    26   ar
    23    26    27    1
    24    26    28   ar
    25    28    29   ar
    26     9    10   ar
    27    10    11   ar
    28    11     2   ar
    29    16    12    1
    30    11     6   ar
    31    29    23   ar
    32    17    20    1
@<TRIPOS>MOLECULE
*****
 29 32 0 0 0
SMALL
GASTEIGER

@<TRIPOS>ATOM
      1 C         138.7377  137.9390  162.3555 C.3     1  UNL1        0.0522
      2 C         139.9254  138.3635  163.1673 C.ar    1  UNL1        0.0637
      3 N         139.7472  138.7751  164.5986 N.ar    1  UNL1       -0.2180
      4 C         140.9350  139.1996  165.4104 C.ar    1  UNL1        0.2198
      5 N         142.3010  139.2126  164.7908 N.ar    1  UNL1       -0.2136
      6 C         142.4792  138.8009  163.3594 C.ar    1  UNL1        0.0854
      7 C         143.8452  138.8139  162.7399 C.ar    1  UNL1        0.0205
      8 C         144.0234  138.4023  161.3085 C.ar    1  UNL1        0.0162
      9 C         142.8356  137.9778  160.4967 C.ar    1  UNL1        0.0505
     10 C         141.4696  137.9648  161.1163 C.ar    1  UNL1        0.0173
     11 C         141.2915  138.3764  162.5476 C.ar    1  UNL1        0.0326
     12 N         140.7567  139.6112  166.8418 N.pl3   1  UNL1       -0.2782
     13 C         141.8549  139.8240  167.8413 C.3     1  UNL1        0.0937
     14 C         141.2259  140.2266  169.1422 C.3     1  UNL1        0.0233
     15 C         139.7391  140.2626  168.9467 C.3     1  UNL1        0.0233
     16 C         139.4492  139.8823  167.5250 C.3     1  UNL1        0.0937
     17 N         143.0139  137.5662  159.0653 N.am    1  UNL1       -0.2809
     18 C         142.8993  138.5864  157.9717 C.2     1  UNL1        0.2707
     19 O         142.6064  140.0182  158.3095 O.2     1  UNL1       -0.2707
     20 H         143.2061  136.6264  158.8436 H       1  UNL1        0.1550
     21 C         143.0775  138.1748  156.5403 C.3     1  UNL1        0.2897
     22 O         143.9747  137.0227  156.1974 O.3     1  UNL1       -0.4656
     23 C         143.3909  135.6604  155.9666 C.ar    1  UNL1        0.1393
     24 C         143.4931  134.6101  157.0327 C.ar    1  UNL1        0.0378
     25 C         142.9093  133.2478  156.8020 C.ar    1  UNL1        0.0145
     26 C         142.2234  132.9357  155.5050 C.ar    1  UNL1        0.0579
     27 CL        141.6396  131.5734  155.2742 Cl      1  UNL1       -0.0822
     28 C         142.1212  133.9858  154.4389 C.ar    1  UNL1        0.0145
     29 C         142.7050  135.3482  154.6697 C.ar    1  UNL1        0.0378
@<TRIPOS>BOND
     1     1     2    1
     2     2     3   ar
     3     3     4   ar
     4     4    12    1
     5    12    13    1
     6    13    14    1
     7    14    15    1
     8    15    16    1
     9     4     5   ar
    10     5     6   ar
    11     6     7   ar
    12     7     8   ar
    13     8     9   ar
    14     9    17    1
    15    17    18   am
    16    18    19    2
    17    18    21    1
    18    21    22    1
    19    22    23    1
    20    23    24   ar
    21    24    25   ar
    22    25    26   ar
    23    26    27    1
    24    26    28   ar
    25    28    29   ar
    26     9    10   ar
    27    10    11   ar
    28    11     2   ar
    29    16    12    1
    30    11     6   ar
    31    29    23   ar
    32    17    20    1
@<TRIPOS>MOLECULE
*****
 29 32 0 0 0
SMALL
GASTEIGER

@<TRIPOS>ATOM
      1 C         143.4634  139.4738  161.7001 C.3     1  UNL1        0.0522
      2 C         142.6397  139.0740  160.5120 C.ar    1  UNL1        0.0637
      3 N         143.2190  138.1639  159.4698 N.ar    1  UNL1       -0.2180
      4 C         142.3953  137.7640  158.2817 C.ar    1  UNL1        0.2198
      5 N         140.9923  138.2742  158.1357 N.ar    1  UNL1       -0.2136
      6 C         140.4130  139.1843  159.1779 C.ar    1  UNL1        0.0854
      7 C         139.0100  139.6945  159.0320 C.ar    1  UNL1        0.0205
      8 C         138.4308  140.6046  160.0741 C.ar    1  UNL1        0.0162
      9 C         139.2544  141.0045  161.2622 C.ar    1  UNL1        0.0505
     10 C         140.6574  140.4943  161.4082 C.ar    1  UNL1        0.0173
     11 C         141.2367  139.5842  160.3660 C.ar    1  UNL1        0.0326
     12 N         142.9747  136.8539  157.2395 N.pl3   1  UNL1       -0.2782
     13 C         143.0818  135.3607  157.3341 C.3     1  UNL1        0.0937
     14 C         143.7219  134.8611  156.0728 C.3     1  UNL1        0.0233
     15 C         144.0103  136.0456  155.1988 C.3     1  UNL1        0.0233
     16 C         143.5485  137.2771  155.9198 C.3     1  UNL1        0.0937
     17 N         138.6751  141.9146  162.3044 N.am    1  UNL1       -0.2809
     18 C         138.6650  143.3981  162.0828 C.2     1  UNL1        0.2707
     19 O         139.2342  143.9715  160.8190 O.2     1  UNL1       -0.2707
     20 H         138.3015  141.5383  163.1339 H       1  UNL1        0.1550
     21 C         138.0856  144.3082  163.1250 C.3     1  UNL1        0.2897
     22 O         138.9891  145.0018  164.1010 O.3     1  UNL1       -0.4656
     23 C         140.4001  144.5271  164.2848 C.ar    1  UNL1        0.1393
     24 C         141.5308  145.2654  163.6318 C.ar    1  UNL1        0.0378
     25 C         142.9418  144.7907  163.8156 C.ar    1  UNL1        0.0145
     26 C         143.2221  143.5778  164.6524 C.ar    1  UNL1        0.0579
     27 CL        144.6331  143.1031  164.8361 Cl      1  UNL1       -0.0822
     28 C         142.0914  142.8395  165.3054 C.ar    1  UNL1        0.0145
     29 C         140.6804  143.3142  165.1216 C.ar    1  UNL1        0.0378
@<TRIPOS>BOND
     1     1     2    1
     2     2     3   ar
     3     3     4   ar
     4     4    12    1
     5    12    13    1
     6    13    14    1
     7    14    15    1
     8    15    16    1
     9     4     5   ar
    10     5     6   ar
    11     6     7   ar
    12     7     8   ar
    13     8     9   ar
    14     9    17    1
    15    17    18   am
    16    18    19    2
    17    18    21    1
    18    21    22    1
    19    22    23    1
    20    23    24   ar
    21    24    25   ar
    22    25    26   ar
    23    26    27    1
    24    26    28   ar
    25    28    29   ar
    26     9    10   ar
    27    10    11   ar
    28    11     2   ar
    29    16    12    1
    30    11     6   ar
    31    29    23   ar
    32    17    20    1
@<TRIPOS>MOLECULE
*****
 29 32 0 0 0
SMALL
GASTEIGER

@<TRIPOS>ATOM
      1 C         143.6349  141.2183  163.7995 C.3     1  UNL1        0.0522
      2 C         142.5327  141.7119  164.6892 C.ar    1  UNL1        0.0637
      3 N         142.2982  141.0650  166.0220 N.ar    1  UNL1       -0.2180
      4 C         141.1961  141.5586  166.9118 C.ar    1  UNL1        0.2198
      5 N         140.3284  142.6991  166.4687 N.ar    1  UNL1       -0.2136
      6 C         140.5629  143.3461  165.1358 C.ar    1  UNL1        0.0854
      7 C         139.6953  144.4867  164.6928 C.ar    1  UNL1        0.0205
      8 C         139.9298  145.1336  163.3600 C.ar    1  UNL1        0.0162
      9 C         141.0320  144.6400  162.4702 C.ar    1  UNL1        0.0505
     10 C         141.8996  143.4995  162.9133 C.ar    1  UNL1        0.0173
     11 C         141.6651  142.8525  164.2461 C.ar    1  UNL1        0.0326
     12 N         140.9616  140.9116  168.2447 N.pl3   1  UNL1       -0.2782
     13 C         141.8316  139.8707  168.8846 C.3     1  UNL1        0.0937
     14 C         141.2237  139.5076  170.2070 C.3     1  UNL1        0.0233
     15 C         139.9779  140.3242  170.3843 C.3     1  UNL1        0.0233
     16 C         139.8160  141.1919  169.1715 C.3     1  UNL1        0.0937
     17 N         141.2665  145.2870  161.1373 N.am    1  UNL1       -0.2809
     18 C         140.4218  144.9036  159.9586 C.2     1  UNL1        0.2707
     19 O         139.3426  143.8733  160.1126 O.2     1  UNL1       -0.2707
     20 H         141.9748  145.9633  161.0362 H       1  UNL1        0.1550
     21 C         140.6563  145.5506  158.6257 C.3     1  UNL1        0.2897
     22 O         139.5519  145.6014  157.6120 O.3     1  UNL1       -0.4656
     23 C         139.6211  146.5782  156.4758 C.ar    1  UNL1        0.1393
     24 C         140.4615  146.2701  155.2720 C.ar    1  UNL1        0.0378
     25 C         140.5307  147.2469  154.1358 C.ar    1  UNL1        0.0145
     26 C         139.7596  148.5318  154.2033 C.ar    1  UNL1        0.0579
     27 CL        139.8289  149.5086  153.0670 Cl      1  UNL1       -0.0822
     28 C         138.9193  148.8399  155.4069 C.ar    1  UNL1        0.0145
     29 C         138.8500  147.8630  156.5432 C.ar    1  UNL1        0.0378
@<TRIPOS>BOND
     1     1     2    1
     2     2     3   ar
     3     3     4   ar
     4     4    12    1
     5    12    13    1
     6    13    14    1
     7    14    15    1
     8    15    16    1
     9     4     5   ar
    10     5     6   ar
    11     6     7   ar
    12     7     8   ar
    13     8     9   ar
    14     9    17    1
    15    17    18   am
    16    18    19    2
    17    18    21    1
    18    21    22    1
    19    22    23    1
    20    23    24   ar
    21    24    25   ar
    22    25    26   ar
    23    26    27    1
    24    26    28   ar
    25    28    29   ar
    26     9    10   ar
    27    10    11   ar
    28    11     2   ar
    29    16    12    1
    30    11     6   ar
    31    29    23   ar
    32    17    20    1
@<TRIPOS>MOLECULE
*****
 29 32 0 0 0
SMALL
GASTEIGER

@<TRIPOS>ATOM
      1 C         140.5196  141.4077  169.9678 C.3     1  UNL1        0.0522
      2 C         139.4275  140.4449  169.6069 C.ar    1  UNL1        0.0637
      3 N         138.5494  139.8706  170.6789 N.ar    1  UNL1       -0.2180
      4 C         137.4574  138.9077  170.3180 C.ar    1  UNL1        0.2198
      5 N         137.2434  138.5191  168.8851 N.ar    1  UNL1       -0.2136
      6 C         138.1215  139.0934  167.8130 C.ar    1  UNL1        0.0854
      7 C         137.9075  138.7048  166.3802 C.ar    1  UNL1        0.0205
      8 C         138.7856  139.2790  165.3082 C.ar    1  UNL1        0.0162
      9 C         139.8777  140.2419  165.6691 C.ar    1  UNL1        0.0505
     10 C         140.0916  140.6305  167.1020 C.ar    1  UNL1        0.0173
     11 C         139.2136  140.0563  168.1739 C.ar    1  UNL1        0.0326
     12 N         136.5792  138.3334  171.3900 N.pl3   1  UNL1       -0.2782
     13 C         135.2678  138.8969  171.8512 C.3     1  UNL1        0.0937
     14 C         134.7364  138.0066  172.9353 C.3     1  UNL1        0.0233
     15 C         135.7195  136.8930  173.1440 C.3     1  UNL1        0.0233
     16 C         136.8584  137.0950  172.1889 C.3     1  UNL1        0.0937
     17 N         140.7558  140.8162  164.5971 N.am    1  UNL1       -0.2809
     18 C         142.0320  140.1232  164.2218 C.2     1  UNL1        0.2707
     19 O         142.4302  138.8559  164.9185 O.2     1  UNL1       -0.2707
     20 H         140.4944  141.6480  164.1398 H       1  UNL1        0.1550
     21 C         142.9101  140.6974  163.1497 C.3     1  UNL1        0.2897
     22 O         143.3533  142.1282  163.2297 O.3     1  UNL1       -0.4656
     23 C         142.4118  143.2280  162.8373 C.ar    1  UNL1        0.1393
     24 C         141.9120  144.1922  163.8720 C.ar    1  UNL1        0.0378
     25 C         140.9705  145.2920  163.4797 C.ar    1  UNL1        0.0145
     26 C         140.5287  145.4276  162.0526 C.ar    1  UNL1        0.0579
     27 CL        139.5872  146.5274  161.6602 Cl      1  UNL1       -0.0822
     28 C         141.0285  144.4635  161.0179 C.ar    1  UNL1        0.0145
     29 C         141.9700  143.3636  161.4103 C.ar    1  UNL1        0.0378
@<TRIPOS>BOND
     1     1     2    1
     2     2     3   ar
     3     3     4   ar
     4     4    12    1
     5    12    13    1
     6    13    14    1
     7    14    15    1
     8    15    16    1
     9     4     5   ar
    10     5     6   ar
    11     6     7   ar
    12     7     8   ar
    13     8     9   ar
    14     9    17    1
    15    17    18   am
    16    18    19    2
    17    18    21    1
    18    21    22    1
    19    22    23    1
    20    23    24   ar
    21    24    25   ar
    22    25    26   ar
    23    26    27    1
    24    26    28   ar
    25    28    29   ar
    26     9    10   ar
    27    10    11   ar
    28    11     2   ar
    29    16    12    1
    30    11     6   ar
    31    29    23   ar
    32    17    20    1
@<TRIPOS>MOLECULE
*****
 29 32 0 0 0
SMALL
GASTEIGER

@<TRIPOS>ATOM
      1 C         144.1198  140.0657  162.3847 C.3     1  UNL1        0.0522
      2 C         143.2555  139.7347  161.2043 C.ar    1  UNL1        0.0637
      3 N         143.7682  139.9594  159.8127 N.ar    1  UNL1       -0.2180
      4 C         142.9039  139.6284  158.6323 C.ar    1  UNL1        0.2198
      5 N         141.5268  139.0726  158.8435 N.ar    1  UNL1       -0.2136
      6 C         141.0140  138.8478  160.2351 C.ar    1  UNL1        0.0854
      7 C         139.6369  138.2920  160.4463 C.ar    1  UNL1        0.0205
      8 C         139.1241  138.0673  161.8379 C.ar    1  UNL1        0.0162
      9 C         139.9884  138.3983  163.0183 C.ar    1  UNL1        0.0505
     10 C         141.3655  138.9541  162.8071 C.ar    1  UNL1        0.0173
     11 C         141.8783  139.1788  161.4155 C.ar    1  UNL1        0.0326
     12 N         143.4167  139.8532  157.2407 N.pl3   1  UNL1       -0.2782
     13 C         142.7045  139.4948  155.9701 C.3     1  UNL1        0.0937
     14 C         143.5794  139.8959  154.8194 C.3     1  UNL1        0.0233
     15 C         144.8322  140.5021  155.3790 C.3     1  UNL1        0.0233
     16 C         144.7316  140.4757  156.8754 C.3     1  UNL1        0.0937
     17 N         139.4756  138.1735  164.4099 N.am    1  UNL1       -0.2809
     18 C         138.5136  139.1485  165.0213 C.2     1  UNL1        0.2707
     19 O         138.0644  140.3483  164.2412 O.2     1  UNL1       -0.2707
     20 H         139.7705  137.3860  164.9220 H       1  UNL1        0.1550
     21 C         138.0008  138.9237  166.4129 C.3     1  UNL1        0.2897
     22 O         138.9544  138.9106  167.5707 O.3     1  UNL1       -0.4656
     23 C         139.4180  140.2028  168.1751 C.ar    1  UNL1        0.1393
     24 C         140.1543  141.2029  167.3338 C.ar    1  UNL1        0.0378
     25 C         140.6178  142.4950  167.9383 C.ar    1  UNL1        0.0145
     26 C         140.3451  142.7871  169.3841 C.ar    1  UNL1        0.0579
     27 CL        140.8087  144.0793  169.9885 Cl      1  UNL1       -0.0822
     28 C         139.6089  141.7871  170.2254 C.ar    1  UNL1        0.0145
     29 C         139.1453  140.4949  169.6209 C.ar    1  UNL1        0.0378
@<TRIPOS>BOND
     1     1     2    1
     2     2     3   ar
     3     3     4   ar
     4     4    12    1
     5    12    13    1
     6    13    14    1
     7    14    15    1
     8    15    16    1
     9     4     5   ar
    10     5     6   ar
    11     6     7   ar
    12     7     8   ar
    13     8     9   ar
    14     9    17    1
    15    17    18   am
    16    18    19    2
    17    18    21    1
    18    21    22    1
    19    22    23    1
    20    23    24   ar
    21    24    25   ar
    22    25    26   ar
    23    26    27    1
    24    26    28   ar
    25    28    29   ar
    26     9    10   ar
    27    10    11   ar
    28    11     2   ar
    29    16    12    1
    30    11     6   ar
    31    29    23   ar
    32    17    20    1
@<TRIPOS>MOLECULE
*****
 29 32 0 0 0
SMALL
GASTEIGER

@<TRIPOS>ATOM
      1 C         142.9588  142.5834  159.5052 C.3     1  UNL1        0.0522
      2 C         141.9752  143.7157  159.5234 C.ar    1  UNL1        0.0637
      3 N         141.6072  144.4101  158.2458 N.ar    1  UNL1       -0.2180
      4 C         140.6235  145.5424  158.2639 C.ar    1  UNL1        0.2198
      5 N         140.0079  145.9804  159.5597 N.ar    1  UNL1       -0.2136
      6 C         140.3759  145.2859  160.8375 C.ar    1  UNL1        0.0854
      7 C         139.7602  145.7239  162.1333 C.ar    1  UNL1        0.0205
      8 C         140.1282  145.0295  163.4109 C.ar    1  UNL1        0.0162
      9 C         141.1119  143.8972  163.3927 C.ar    1  UNL1        0.0505
     10 C         141.7275  143.4592  162.0969 C.ar    1  UNL1        0.0173
     11 C         141.3595  144.1536  160.8193 C.ar    1  UNL1        0.0326
     12 N         140.2556  146.2368  156.9862 N.pl3   1  UNL1       -0.2782
     13 C         139.1362  147.2193  156.8075 C.3     1  UNL1        0.0937
     14 C         139.1312  147.6604  155.3738 C.3     1  UNL1        0.0233
     15 C         140.2474  146.9504  154.6665 C.3     1  UNL1        0.0233
     16 C         140.9422  146.0707  155.6630 C.3     1  UNL1        0.0937
     17 N         141.4798  143.2028  164.6704 N.am    1  UNL1       -0.2809
     18 C         140.6829  142.0213  165.1383 C.2     1  UNL1        0.2707
     19 O         139.5180  141.5341  164.3286 O.2     1  UNL1       -0.2707
     20 H         142.2444  143.5225  165.2019 H       1  UNL1        0.1550
     21 C         141.0509  141.3269  166.4160 C.3     1  UNL1        0.2897
     22 O         141.6501  139.9523  166.3769 O.3     1  UNL1       -0.4656
     23 C         142.2441  139.4291  165.1029 C.ar    1  UNL1        0.1393
     24 C         141.4818  138.4413  164.2701 C.ar    1  UNL1        0.0378
     25 C         142.0758  137.9180  162.9961 C.ar    1  UNL1        0.0145
     26 C         143.4320  138.3825  162.5546 C.ar    1  UNL1        0.0579
     27 CL        144.0260  137.8593  161.2805 Cl      1  UNL1       -0.0822
     28 C         144.1943  139.3703  163.3872 C.ar    1  UNL1        0.0145
     29 C         143.6003  139.8936  164.6614 C.ar    1  UNL1        0.0378
@<TRIPOS>BOND
     1     1     2    1
     2     2     3   ar
     3     3     4   ar
     4     4    12    1
     5    12    13    1
     6    13    14    1
     7    14    15    1
     8    15    16    1
     9     4     5   ar
    10     5     6   ar
    11     6     7   ar
    12     7     8   ar
    13     8     9   ar
    14     9    17    1
    15    17    18   am
    16    18    19    2
    17    18    21    1
    18    21    22    1
    19    22    23    1
    20    23    24   ar
    21    24    25   ar
    22    25    26   ar
    23    26    27    1
    24    26    28   ar
    25    28    29   ar
    26     9    10   ar
    27    10    11   ar
    28    11     2   ar
    29    16    12    1
    30    11     6   ar
    31    29    23   ar
    32    17    20    1
@<TRIPOS>MOLECULE
*****
 29 32 0 0 0
SMALL
GASTEIGER

@<TRIPOS>ATOM
      1 C         140.4680  139.0838  160.4839 C.3     1  UNL1        0.0522
      2 C         141.4731  139.0065  159.3731 C.ar    1  UNL1        0.0637
      3 N         141.4890  137.8186  158.4574 N.ar    1  UNL1       -0.2180
      4 C         142.4942  137.7413  157.3466 C.ar    1  UNL1        0.2198
      5 N         143.4834  138.8519  157.1516 N.ar    1  UNL1       -0.2136
      6 C         143.4674  140.0399  158.0674 C.ar    1  UNL1        0.0854
      7 C         144.4566  141.1504  157.8724 C.ar    1  UNL1        0.0205
      8 C         144.4407  142.3383  158.7881 C.ar    1  UNL1        0.0162
      9 C         143.4356  142.4156  159.8988 C.ar    1  UNL1        0.0505
     10 C         142.4464  141.3051  160.0939 C.ar    1  UNL1        0.0173
     11 C         142.4623  140.1172  159.1781 C.ar    1  UNL1        0.0326
     12 N         142.5101  136.5533  156.4309 N.pl3   1  UNL1       -0.2782
     13 C         141.3432  136.0276  155.6485 C.3     1  UNL1        0.0937
     14 C         141.8076  134.8319  154.8708 C.3     1  UNL1        0.0233
     15 C         143.2614  134.6187  155.1726 C.3     1  UNL1        0.0233
     16 C         143.6955  135.6826  156.1368 C.3     1  UNL1        0.0937
     17 N         143.4196  143.6036  160.8146 N.am    1  UNL1       -0.2809
     18 C         144.2030  143.5753  162.0935 C.2     1  UNL1        0.2707
     19 O         145.0022  142.3591  162.4567 O.2     1  UNL1       -0.2707
     20 H         142.8951  144.4019  160.5762 H       1  UNL1        0.1550
     21 C         144.1871  144.7633  163.0092 C.3     1  UNL1        0.2897
     22 O         143.2715  144.7823  164.1972 O.3     1  UNL1       -0.4656
     23 C         141.7922  144.6235  164.0066 C.ar    1  UNL1        0.1393
     24 C         141.0769  145.4428  162.9736 C.ar    1  UNL1        0.0378
     25 C         139.5976  145.2840  162.7829 C.ar    1  UNL1        0.0145
     26 C         138.8335  144.3059  163.6253 C.ar    1  UNL1        0.0579
     27 CL        137.3542  144.1471  163.4347 Cl      1  UNL1       -0.0822
     28 C         139.5488  143.4866  164.6583 C.ar    1  UNL1        0.0145
     29 C         141.0282  143.6454  164.8490 C.ar    1  UNL1        0.0378
@<TRIPOS>BOND
     1     1     2    1
     2     2     3   ar
     3     3     4   ar
     4     4    12    1
     5    12    13    1
     6    13    14    1
     7    14    15    1
     8    15    16    1
     9     4     5   ar
    10     5     6   ar
    11     6     7   ar
    12     7     8   ar
    13     8     9   ar
    14     9    17    1
    15    17    18   am
    16    18    19    2
    17    18    21    1
    18    21    22    1
    19    22    23    1
    20    23    24   ar
    21    24    25   ar
    22    25    26   ar
    23    26    27    1
    24    26    28   ar
    25    28    29   ar
    26     9    10   ar
    27    10    11   ar
    28    11     2   ar
    29    16    12    1
    30    11     6   ar
    31    29    23   ar
    32    17    20    1
