@<TRIPOS>MOLECULE
*****
 42 47 0 0 0
SMALL
GASTEIGER

@<TRIPOS>ATOM
      1 C         142.7889  135.7899  157.7662 C.ar    1  UNL1        0.2400
      2 N         142.2250  135.2972  156.4665 N.ar    1  UNL1       -0.2090
      3 C         141.4898  136.2413  155.5620 C.ar    1  UNL1        0.1021
      4 C         141.1403  137.7400  155.6548 C.ar    1  UNL1        0.0207
      5 C         141.9087  137.2339  156.8394 C.ar    1  UNL1        0.0221
      6 C         142.6176  137.2268  158.1613 C.ar    1  UNL1        0.1178
      7 N         143.1815  137.7196  159.4610 N.pl3   1  UNL1       -0.2104
      8 S         143.5324  138.6528  160.5817 S.O2    1  UNL1        0.0759
      9 O         144.2712  138.4762  161.8752 O.2     1  UNL1       -0.1499
     10 O         144.0221  137.2518  160.7998 O.2     1  UNL1       -0.1499
     11 C         143.6279  139.9139  161.3883 C.ar    1  UNL1        0.1527
     12 C         143.4566  141.3506  161.7835 C.ar    1  UNL1        0.0293
     13 C         143.0391  142.7900  161.7195 C.ar    1  UNL1        0.0822
     14 C         143.8190  142.4360  163.0015 C.ar    1  UNL1        0.1468
     15 F         143.9145  143.6971  163.8080 F       1  UNL1       -0.2039
     16 C         144.4324  141.1678  163.5168 C.ar    1  UNL1        0.0608
     17 C         144.3368  139.9067  162.7102 C.ar    1  UNL1        0.1611
     18 F         144.9502  138.6386  163.2255 F       1  UNL1       -0.2027
     19 C         142.4258  144.0581  161.2042 C.2     1  UNL1        0.2483
     20 O         142.7766  144.9913  162.3249 O.2     1  UNL1       -0.2701
     21 N         141.6906  145.0022  160.2997 N.am    1  UNL1       -0.2968
     22 C         140.9222  145.5083  159.1150 C.3     1  UNL1        0.1181
     23 C         140.2132  145.5154  157.7931 C.ar    1  UNL1        0.0166
     24 C         139.5999  146.7836  157.2778 C.ar    1  UNL1        0.0962
     25 N         138.8910  146.7907  155.9559 N.ar    1  UNL1       -0.2426
     26 C         138.7955  145.5296  155.1493 C.ar    1  UNL1        0.0988
     27 C         139.4088  144.2614  155.6646 C.ar    1  UNL1        0.0190
     28 C         140.1177  144.2544  156.9865 C.ar    1  UNL1        0.0005
     29 C         139.2029  142.8284  154.5661 C.ar    1  UNL1        0.0045
     30 C         138.4677  143.7725  153.6616 C.ar    1  UNL1        0.0207
     31 C         137.9038  143.2797  152.3619 C.ar    1  UNL1        0.0988
     32 N         138.0752  141.8429  151.9668 N.ar    1  UNL1       -0.2438
     33 C         138.8104  140.8988  152.8713 C.ar    1  UNL1        0.0813
     34 C         139.0919  139.2686  152.5860 C.ar    1  UNL1        0.0191
     35 C         139.8139  138.2659  153.4366 C.ar    1  UNL1        0.0016
     36 C         140.4051  138.6841  154.7502 C.ar    1  UNL1        0.0016
     37 C         139.7917  139.9523  154.2349 C.ar    1  UNL1        0.0015
     38 C         139.3743  141.3916  154.1710 C.ar    1  UNL1        0.0177
     39 H         143.5841  136.8873  159.7993 H       1  UNL1        0.1739
     40 H         141.7533  145.8299  160.8291 H       1  UNL1        0.1501
     41 C         144.1015  133.5758  158.1196 C.3     1  UNL1        0.2543
     42 O         143.5241  134.8459  158.6707 O.3     1  UNL1       -0.4553
@<TRIPOS>BOND
     1    41    42    1
     2    42     1    1
     3     1     2   ar
     4     2     3   ar
     5     3     4   ar
     6     4     5   ar
     7     5     6   ar
     8     6     7    1
     9     7     8    1
    10     8     9    2
    11     8    10    2
    12     8    11    1
    13    11    12   ar
    14    12    13   ar
    15    13    14   ar
    16    14    15    1
    17    14    16   ar
    18    16    17   ar
    19    17    18    1
    20    13    19    1
    21    19    20    2
    22    19    21   am
    23    21    22    1
    24    22    23    1
    25    23    24   ar
    26    24    25   ar
    27    25    26   ar
    28    26    27   ar
    29    27    28   ar
    30    27    29    1
    31    29    30   ar
    32    30    31   ar
    33    31    32   ar
    34    32    33   ar
    35    33    34   ar
    36    34    35   ar
    37    35    36   ar
    38    36    37   ar
    39    37    38   ar
    40     6     1   ar
    41    17    11   ar
    42    28    23   ar
    43    38    29   ar
    44    36     4    1
    45    38    33   ar
    46     7    39    1
    47    21    40    1
@<TRIPOS>MOLECULE
*****
 42 47 0 0 0
SMALL
GASTEIGER

@<TRIPOS>ATOM
      1 C         140.4651  145.5926  154.9193 C.ar    1  UNL1        0.2400
      2 N         140.0446  146.7660  155.7536 N.ar    1  UNL1       -0.2090
      3 C         139.9731  146.6378  157.2464 C.ar    1  UNL1        0.1021
      4 C         140.2546  145.4794  158.2241 C.ar    1  UNL1        0.0207
      5 C         140.4738  145.1111  156.7866 C.ar    1  UNL1        0.0221
      6 C         140.8142  144.2908  155.5779 C.ar    1  UNL1        0.1178
      7 N         141.2347  143.1173  154.7436 N.pl3   1  UNL1       -0.2104
      8 S         141.6847  141.7322  154.3844 S.O2    1  UNL1        0.0759
      9 O         141.9886  141.0541  153.0813 O.2     1  UNL1       -0.1499
     10 O         141.5003  142.6247  153.1929 O.2     1  UNL1       -0.1499
     11 C         142.1098  140.3026  154.5437 C.ar    1  UNL1        0.1527
     12 C         142.4588  139.0008  155.2021 C.ar    1  UNL1        0.0293
     13 C         142.6896  137.9840  156.2804 C.ar    1  UNL1        0.0822
     14 C         142.9601  137.4433  154.8622 C.ar    1  UNL1        0.1468
     15 F         143.3852  136.0136  155.0214 F       1  UNL1       -0.2039
     16 C         142.8753  138.0526  153.4941 C.ar    1  UNL1        0.0608
     17 C         142.4502  139.4822  153.3348 C.ar    1  UNL1        0.1611
     18 F         142.3655  140.0915  151.9668 F       1  UNL1       -0.2027
     19 C         142.7744  137.3747  157.6485 C.2     1  UNL1        0.2483
     20 O         143.2244  135.9896  157.2893 O.2     1  UNL1       -0.2701
     21 N         142.7029  137.2464  159.1412 N.am    1  UNL1       -0.2968
     22 C         142.4837  137.6146  160.5787 C.3     1  UNL1        0.1181
     23 C         142.1433  138.4350  161.7876 C.ar    1  UNL1        0.0166
     24 C         142.2281  137.8257  163.1556 C.ar    1  UNL1        0.0962
     25 N         141.8877  138.6460  164.3643 N.ar    1  UNL1       -0.2426
     26 C         141.4625  140.0757  164.2051 C.ar    1  UNL1        0.0988
     27 C         141.3778  140.6850  162.8371 C.ar    1  UNL1        0.0190
     28 C         141.7182  139.8646  161.6283 C.ar    1  UNL1        0.0005
     29 C         140.8477  142.4232  162.8218 C.ar    1  UNL1        0.0045
     30 C         140.7761  142.2949  164.3146 C.ar    1  UNL1        0.0207
     31 C         140.3556  143.4685  165.1489 C.ar    1  UNL1        0.0988
     32 N         140.0066  144.7702  164.4903 N.ar    1  UNL1       -0.2438
     33 C         140.0781  144.8985  162.9975 C.ar    1  UNL1        0.0813
     34 C         139.7242  146.2736  162.1020 C.ar    1  UNL1        0.0191
     35 C         139.7718  146.4786  160.6168 C.ar    1  UNL1        0.0016
     36 C         140.1831  145.3511  159.7169 C.ar    1  UNL1        0.0016
     37 C         140.2678  144.7418  161.0850 C.ar    1  UNL1        0.0015
     38 C         140.4987  143.7249  162.1632 C.ar    1  UNL1        0.0177
     39 H         141.1791  143.5172  153.8457 H       1  UNL1        0.1739
     40 H         142.9819  136.3080  159.2458 H       1  UNL1        0.1501
     41 C         141.7878  146.2336  152.7770 C.3     1  UNL1        0.2543
     42 O         140.5367  145.7208  153.4265 O.3     1  UNL1       -0.4553
@<TRIPOS>BOND
     1    41    42    1
     2    42     1    1
     3     1     2   ar
     4     2     3   ar
     5     3     4   ar
     6     4     5   ar
     7     5     6   ar
     8     6     7    1
     9     7     8    1
    10     8     9    2
    11     8    10    2
    12     8    11    1
    13    11    12   ar
    14    12    13   ar
    15    13    14   ar
    16    14    15    1
    17    14    16   ar
    18    16    17   ar
    19    17    18    1
    20    13    19    1
    21    19    20    2
    22    19    21   am
    23    21    22    1
    24    22    23    1
    25    23    24   ar
    26    24    25   ar
    27    25    26   ar
    28    26    27   ar
    29    27    28   ar
    30    27    29    1
    31    29    30   ar
    32    30    31   ar
    33    31    32   ar
    34    32    33   ar
    35    33    34   ar
    36    34    35   ar
    37    35    36   ar
    38    36    37   ar
    39    37    38   ar
    40     6     1   ar
    41    17    11   ar
    42    28    23   ar
    43    38    29   ar
    44    36     4    1
    45    38    33   ar
    46     7    39    1
    47    21    40    1
@<TRIPOS>MOLECULE
*****
 42 47 0 0 0
SMALL
GASTEIGER

@<TRIPOS>ATOM
      1 C         143.3305  136.8447  156.5939 C.ar    1  UNL1        0.2400
      2 N         143.3811  135.9189  157.7729 N.ar    1  UNL1       -0.2090
      3 C         142.9922  136.4156  159.1338 C.ar    1  UNL1        0.1021
      4 C         142.5064  137.7793  159.6641 C.ar    1  UNL1        0.0207
      5 C         142.7750  137.7763  158.1884 C.ar    1  UNL1        0.0221
      6 C         142.8911  138.2674  156.7758 C.ar    1  UNL1        0.1178
      7 N         142.8405  139.1933  155.5967 N.pl3   1  UNL1       -0.2104
      8 S         142.6294  140.4423  154.7935 S.O2    1  UNL1        0.0759
      9 O         142.7989  140.7724  153.3400 O.2     1  UNL1       -0.1499
     10 O         143.1098  139.2822  153.9728 O.2     1  UNL1       -0.1499
     11 C         142.2833  141.8639  154.4628 C.ar    1  UNL1        0.1527
     12 C         141.8439  143.2865  154.6447 C.ar    1  UNL1        0.0293
     13 C         141.3641  144.5386  155.3171 C.ar    1  UNL1        0.0822
     14 C         141.5910  144.7071  153.8015 C.ar    1  UNL1        0.1468
     15 F         141.2449  146.1286  153.4708 F       1  UNL1       -0.2039
     16 C         142.0532  143.7765  152.7195 C.ar    1  UNL1        0.0608
     17 C         142.3993  142.3550  153.0502 C.ar    1  UNL1        0.1611
     18 F         142.8615  141.4245  151.9683 F       1  UNL1       -0.2027
     19 C         140.9020  145.4691  156.3990 C.2     1  UNL1        0.2483
     20 O         140.6909  146.7181  155.5957 O.2     1  UNL1       -0.2701
     21 N         140.5131  145.9658  157.7599 N.am    1  UNL1       -0.2968
     22 C         140.2445  145.9688  159.2356 C.3     1  UNL1        0.1181
     23 C         140.1284  145.4777  160.6483 C.ar    1  UNL1        0.0166
     24 C         139.6663  146.4082  161.7302 C.ar    1  UNL1        0.0962
     25 N         139.5502  145.9172  163.1427 N.ar    1  UNL1       -0.2426
     26 C         139.8963  144.4956  163.4734 C.ar    1  UNL1        0.0988
     27 C         140.3585  143.5651  162.3915 C.ar    1  UNL1        0.0190
     28 C         140.4745  144.0562  160.9789 C.ar    1  UNL1        0.0005
     29 C         140.7362  141.8812  162.9613 C.ar    1  UNL1        0.0045
     30 C         140.3473  142.3779  164.3222 C.ar    1  UNL1        0.0207
     31 C         140.3979  141.4520  165.5012 C.ar    1  UNL1        0.0988
     32 N         140.8373  140.0294  165.3193 N.ar    1  UNL1       -0.2438
     33 C         141.2262  139.5327  163.9584 C.ar    1  UNL1        0.0813
     34 C         141.7388  137.9800  163.5782 C.ar    1  UNL1        0.0191
     35 C         142.1423  137.4110  162.2502 C.ar    1  UNL1        0.0016
     36 C         142.1175  138.2760  161.0250 C.ar    1  UNL1        0.0016
     37 C         141.6553  139.2065  162.1070 C.ar    1  UNL1        0.0015
     38 C         141.1756  140.4586  162.7793 C.ar    1  UNL1        0.0177
     39 H         143.1438  138.5826  154.8866 H       1  UNL1        0.1739
     40 H         140.2859  146.8988  157.5429 H       1  UNL1        0.1501
     41 C         142.9466  135.2333  154.5924 C.3     1  UNL1        0.2543
     42 O         143.7193  136.3481  155.2330 O.3     1  UNL1       -0.4553
@<TRIPOS>BOND
     1    41    42    1
     2    42     1    1
     3     1     2   ar
     4     2     3   ar
     5     3     4   ar
     6     4     5   ar
     7     5     6   ar
     8     6     7    1
     9     7     8    1
    10     8     9    2
    11     8    10    2
    12     8    11    1
    13    11    12   ar
    14    12    13   ar
    15    13    14   ar
    16    14    15    1
    17    14    16   ar
    18    16    17   ar
    19    17    18    1
    20    13    19    1
    21    19    20    2
    22    19    21   am
    23    21    22    1
    24    22    23    1
    25    23    24   ar
    26    24    25   ar
    27    25    26   ar
    28    26    27   ar
    29    27    28   ar
    30    27    29    1
    31    29    30   ar
    32    30    31   ar
    33    31    32   ar
    34    32    33   ar
    35    33    34   ar
    36    34    35   ar
    37    35    36   ar
    38    36    37   ar
    39    37    38   ar
    40     6     1   ar
    41    17    11   ar
    42    28    23   ar
    43    38    29   ar
    44    36     4    1
    45    38    33   ar
    46     7    39    1
    47    21    40    1
@<TRIPOS>MOLECULE
*****
 42 47 0 0 0
SMALL
GASTEIGER

@<TRIPOS>ATOM
      1 C         143.5651  139.9813  162.1083 C.ar    1  UNL1        0.2400
      2 N         143.4389  141.3582  162.6898 N.ar    1  UNL1       -0.2090
      3 C         142.7729  142.4470  161.9018 C.ar    1  UNL1        0.1021
      4 C         142.1245  142.4971  160.5040 C.ar    1  UNL1        0.0207
      5 C         142.6686  141.1452  160.8591 C.ar    1  UNL1        0.0221
      6 C         143.0253  139.6932  160.7387 C.ar    1  UNL1        0.1178
      7 N         143.1515  138.3163  160.1571 N.pl3   1  UNL1       -0.2104
      8 S         143.0321  137.1806  159.1846 S.O2    1  UNL1        0.0759
      9 O         143.4573  135.7426  159.2240 O.2     1  UNL1       -0.1499
     10 O         143.7197  136.7991  160.4620 O.2     1  UNL1       -0.1499
     11 C         142.6813  136.4230  157.9384 C.ar    1  UNL1        0.1527
     12 C         142.1416  136.1349  156.5689 C.ar    1  UNL1        0.0293
     13 C         141.4780  136.3511  155.2411 C.ar    1  UNL1        0.0822
     14 C         141.9798  134.9078  155.4460 C.ar    1  UNL1        0.1468
     15 F         141.6290  134.1502  154.1998 F       1  UNL1       -0.2039
     16 C         142.6873  134.2134  156.5718 C.ar    1  UNL1        0.0608
     17 C         143.0380  134.9710  157.8180 C.ar    1  UNL1        0.1611
     18 F         143.7455  134.2766  158.9437 F       1  UNL1       -0.2027
     19 C         140.7705  137.0455  154.1154 C.2     1  UNL1        0.2483
     20 O         140.6510  135.9098  153.1429 O.2     1  UNL1       -0.2701
     21 N         140.1046  138.1343  153.3274 N.am    1  UNL1       -0.2968
     22 C         139.5604  139.4862  152.9722 C.3     1  UNL1        0.1181
     23 C         139.2037  140.9383  153.0926 C.ar    1  UNL1        0.0166
     24 C         138.4963  141.6326  151.9669 C.ar    1  UNL1        0.0962
     25 N         138.1396  143.0846  152.0873 N.ar    1  UNL1       -0.2426
     26 C         138.4904  143.8422  153.3335 C.ar    1  UNL1        0.0988
     27 C         139.1978  143.1478  154.4592 C.ar    1  UNL1        0.0190
     28 C         139.5545  141.6959  154.3388 C.ar    1  UNL1        0.0005
     29 C         139.5477  144.2085  155.8929 C.ar    1  UNL1        0.0045
     30 C         138.8818  145.2973  155.1049 C.ar    1  UNL1        0.0207
     31 C         138.7556  146.6742  155.6864 C.ar    1  UNL1        0.0988
     32 N         139.2953  146.9622  157.0560 N.ar    1  UNL1       -0.2438
     33 C         139.9613  145.8734  157.8440 C.ar    1  UNL1        0.0813
     34 C         140.6172  146.0213  159.3822 C.ar    1  UNL1        0.0191
     35 C         141.2951  144.9858  160.2297 C.ar    1  UNL1        0.0016
     36 C         141.4586  143.5859  159.7159 C.ar    1  UNL1        0.0016
     37 C         140.7511  144.2804  158.5902 C.ar    1  UNL1        0.0015
     38 C         140.0875  144.4965  157.2624 C.ar    1  UNL1        0.0177
     39 H         143.6159  137.8605  160.8960 H       1  UNL1        0.1739
     40 H         139.8743  137.6370  152.5094 H       1  UNL1        0.1501
     41 C         144.7995  139.1885  164.2525 C.3     1  UNL1        0.2543
     42 O         144.2310  138.8924  162.8963 O.3     1  UNL1       -0.4553
@<TRIPOS>BOND
     1    41    42    1
     2    42     1    1
     3     1     2   ar
     4     2     3   ar
     5     3     4   ar
     6     4     5   ar
     7     5     6   ar
     8     6     7    1
     9     7     8    1
    10     8     9    2
    11     8    10    2
    12     8    11    1
    13    11    12   ar
    14    12    13   ar
    15    13    14   ar
    16    14    15    1
    17    14    16   ar
    18    16    17   ar
    19    17    18    1
    20    13    19    1
    21    19    20    2
    22    19    21   am
    23    21    22    1
    24    22    23    1
    25    23    24   ar
    26    24    25   ar
    27    25    26   ar
    28    26    27   ar
    29    27    28   ar
    30    27    29    1
    31    29    30   ar
    32    30    31   ar
    33    31    32   ar
    34    32    33   ar
    35    33    34   ar
    36    34    35   ar
    37    35    36   ar
    38    36    37   ar
    39    37    38   ar
    40     6     1   ar
    41    17    11   ar
    42    28    23   ar
    43    38    29   ar
    44    36     4    1
    45    38    33   ar
    46     7    39    1
    47    21    40    1
@<TRIPOS>MOLECULE
*****
 42 47 0 0 0
SMALL
GASTEIGER

@<TRIPOS>ATOM
      1 C         139.7181  142.8857  153.8272 C.ar    1  UNL1        0.2400
      2 N         139.3525  144.2771  154.2519 N.ar    1  UNL1       -0.2090
      3 C         139.5472  144.7017  155.6773 C.ar    1  UNL1        0.1021
      4 C         140.0840  143.9840  156.9318 C.ar    1  UNL1        0.0207
      5 C         140.0839  143.1193  155.7061 C.ar    1  UNL1        0.0221
      6 C         140.2783  141.9189  154.8280 C.ar    1  UNL1        0.1178
      7 N         140.6438  140.5275  154.4033 N.pl3   1  UNL1       -0.2104
      8 S         141.1364  139.1130  154.4833 S.O2    1  UNL1        0.0759
      9 O         141.2674  138.0100  153.4751 O.2     1  UNL1       -0.1499
     10 O         140.6800  139.5064  153.1096 O.2     1  UNL1       -0.1499
     11 C         141.6966  137.8459  155.0584 C.ar    1  UNL1        0.1527
     12 C         142.2568  136.8791  156.0591 C.ar    1  UNL1        0.0293
     13 C         142.7495  136.3292  157.3648 C.ar    1  UNL1        0.0822
     14 C         142.8169  135.3117  156.2085 C.ar    1  UNL1        0.1468
     15 F         143.3771  134.0446  156.7835 F       1  UNL1       -0.2039
     16 C         142.4512  135.3783  154.7552 C.ar    1  UNL1        0.0608
     17 C         141.8910  136.6454  154.1802 C.ar    1  UNL1        0.1611
     18 F         141.5253  136.7121  152.7270 F       1  UNL1       -0.2027
     19 C         143.1152  136.2625  158.8180 C.2     1  UNL1        0.2483
     20 O         143.6077  134.8480  158.8980 O.2     1  UNL1       -0.2701
     21 N         143.3099  136.6871  160.2434 N.am    1  UNL1       -0.2968
     22 C         143.3100  137.5518  161.4691 C.3     1  UNL1        0.1181
     23 C         143.1155  138.7522  162.3473 C.ar    1  UNL1        0.0166
     24 C         143.4813  138.6856  163.8005 C.ar    1  UNL1        0.0962
     25 N         143.2868  139.8860  164.6786 N.ar    1  UNL1       -0.2426
     26 C         142.7267  141.1531  164.1035 C.ar    1  UNL1        0.0988
     27 C         142.3609  141.2197  162.6504 C.ar    1  UNL1        0.0190
     28 C         142.5554  140.0193  161.7722 C.ar    1  UNL1        0.0005
     29 C         141.6973  142.8253  162.1169 C.ar    1  UNL1        0.0045
     30 C         141.8920  143.2499  163.5423 C.ar    1  UNL1        0.0207
     31 C         141.5264  144.6413  163.9670 C.ar    1  UNL1        0.0988
     32 N         140.9662  145.6081  162.9662 N.ar    1  UNL1       -0.2438
     33 C         140.7715  145.1835  161.5408 C.ar    1  UNL1        0.0813
     34 C         140.1602  146.1320  160.2979 C.ar    1  UNL1        0.0191
     35 C         139.9371  145.7812  158.8566 C.ar    1  UNL1        0.0016
     36 C         140.2786  144.4086  158.3572 C.ar    1  UNL1        0.0016
     37 C         140.6444  144.3420  159.8105 C.ar    1  UNL1        0.0015
     38 C         141.1371  143.7920  161.1161 C.ar    1  UNL1        0.0177
     39 H         140.4038  140.5712  153.4495 H       1  UNL1        0.1739
     40 H         143.6775  135.8554  160.6208 H       1  UNL1        0.1501
     41 C         138.2140  141.8725  151.9668 C.3     1  UNL1        0.2543
     42 O         139.5234  142.4611  152.4018 O.3     1  UNL1       -0.4553
@<TRIPOS>BOND
     1    41    42    1
     2    42     1    1
     3     1     2   ar
     4     2     3   ar
     5     3     4   ar
     6     4     5   ar
     7     5     6   ar
     8     6     7    1
     9     7     8    1
    10     8     9    2
    11     8    10    2
    12     8    11    1
    13    11    12   ar
    14    12    13   ar
    15    13    14   ar
    16    14    15    1
    17    14    16   ar
    18    16    17   ar
    19    17    18    1
    20    13    19    1
    21    19    20    2
    22    19    21   am
    23    21    22    1
    24    22    23    1
    25    23    24   ar
    26    24    25   ar
    27    25    26   ar
    28    26    27   ar
    29    27    28   ar
    30    27    29    1
    31    29    30   ar
    32    30    31   ar
    33    31    32   ar
    34    32    33   ar
    35    33    34   ar
    36    34    35   ar
    37    35    36   ar
    38    36    37   ar
    39    37    38   ar
    40     6     1   ar
    41    17    11   ar
    42    28    23   ar
    43    38    29   ar
    44    36     4    1
    45    38    33   ar
    46     7    39    1
    47    21    40    1
@<TRIPOS>MOLECULE
*****
 42 47 0 0 0
SMALL
GASTEIGER

@<TRIPOS>ATOM
      1 C         138.5347  142.9862  153.7839 C.ar    1  UNL1        0.2400
      2 N         138.2710  144.3493  154.3513 N.ar    1  UNL1       -0.2090
      3 C         138.7456  144.6915  155.7325 C.ar    1  UNL1        0.1021
      4 C         139.5129  143.9044  156.8135 C.ar    1  UNL1        0.0207
      5 C         139.2648  143.1120  155.5643 C.ar    1  UNL1        0.0221
      6 C         139.2732  141.9651  154.5977 C.ar    1  UNL1        0.1178
      7 N         139.5370  140.6018  154.0302 N.pl3   1  UNL1       -0.2104
      8 S         140.0244  139.1867  153.9305 S.O2    1  UNL1        0.0759
      9 O         139.9457  138.1444  152.8546 O.2     1  UNL1       -0.1499
     10 O         139.3098  139.6573  152.6983 O.2     1  UNL1       -0.1499
     11 C         140.6766  137.8905  154.3103 C.ar    1  UNL1        0.1527
     12 C         141.4150  136.8695  155.1240 C.ar    1  UNL1        0.0293
     13 C         142.1506  136.2467  156.2735 C.ar    1  UNL1        0.0822
     14 C         141.9811  135.2980  155.0701 C.ar    1  UNL1        0.1468
     15 F         142.6334  134.0018  155.4500 F       1  UNL1       -0.2039
     16 C         141.3372  135.4473  153.7235 C.ar    1  UNL1        0.0608
     17 C         140.6849  136.7435  153.3436 C.ar    1  UNL1        0.1611
     18 F         140.0410  136.8928  151.9972 F       1  UNL1       -0.2027
     19 C         142.7945  136.0974  157.6200 C.2     1  UNL1        0.2483
     20 O         143.2819  134.6824  157.5202 O.2     1  UNL1       -0.2701
     21 N         143.2691  136.4396  159.0011 N.am    1  UNL1       -0.2968
     22 C         143.5172  137.2320  160.2503 C.3     1  UNL1        0.1181
     23 C         143.5089  138.3790  161.2170 C.ar    1  UNL1        0.0166
     24 C         144.1528  138.2297  162.5635 C.ar    1  UNL1        0.0962
     25 N         144.1445  139.3766  163.5301 N.ar    1  UNL1       -0.2426
     26 C         143.4922  140.6729  163.1502 C.ar    1  UNL1        0.0988
     27 C         142.8483  140.8222  161.8038 C.ar    1  UNL1        0.0190
     28 C         142.8567  139.6752  160.8372 C.ar    1  UNL1        0.0005
     29 C         142.1055  142.4535  161.5044 C.ar    1  UNL1        0.0045
     30 C         142.5801  142.7957  162.8856 C.ar    1  UNL1        0.0207
     31 C         142.3163  144.1590  163.4530 C.ar    1  UNL1        0.0988
     32 N         141.5779  145.1800  162.6392 N.ar    1  UNL1       -0.2438
     33 C         141.1033  144.8378  161.2581 C.ar    1  UNL1        0.0813
     34 C         140.2669  145.8544  160.2163 C.ar    1  UNL1        0.0191
     35 C         139.7618  145.5868  158.8294 C.ar    1  UNL1        0.0016
     36 C         139.9876  144.2466  158.1947 C.ar    1  UNL1        0.0016
     37 C         140.6315  144.0973  159.5412 C.ar    1  UNL1        0.0015
     38 C         141.3671  143.4745  160.6906 C.ar    1  UNL1        0.0177
     39 H         139.1143  140.6998  153.1465 H       1  UNL1        0.1739
     40 H         143.6972  135.5888  159.2505 H       1  UNL1        0.1501
     41 C         136.6860  142.0770  152.2009 C.3     1  UNL1        0.2543
     42 O         138.0601  142.6439  152.4027 O.3     1  UNL1       -0.4553
@<TRIPOS>BOND
     1    41    42    1
     2    42     1    1
     3     1     2   ar
     4     2     3   ar
     5     3     4   ar
     6     4     5   ar
     7     5     6   ar
     8     6     7    1
     9     7     8    1
    10     8     9    2
    11     8    10    2
    12     8    11    1
    13    11    12   ar
    14    12    13   ar
    15    13    14   ar
    16    14    15    1
    17    14    16   ar
    18    16    17   ar
    19    17    18    1
    20    13    19    1
    21    19    20    2
    22    19    21   am
    23    21    22    1
    24    22    23    1
    25    23    24   ar
    26    24    25   ar
    27    25    26   ar
    28    26    27   ar
    29    27    28   ar
    30    27    29    1
    31    29    30   ar
    32    30    31   ar
    33    31    32   ar
    34    32    33   ar
    35    33    34   ar
    36    34    35   ar
    37    35    36   ar
    38    36    37   ar
    39    37    38   ar
    40     6     1   ar
    41    17    11   ar
    42    28    23   ar
    43    38    29   ar
    44    36     4    1
    45    38    33   ar
    46     7    39    1
    47    21    40    1
@<TRIPOS>MOLECULE
*****
 42 47 0 0 0
SMALL
GASTEIGER

@<TRIPOS>ATOM
      1 C         141.7310  136.9583  155.2832 C.ar    1  UNL1        0.2400
      2 N         142.4235  135.9786  156.1834 N.ar    1  UNL1       -0.2090
      3 C         142.8016  136.3795  157.5785 C.ar    1  UNL1        0.1021
      4 C         142.6340  137.6806  158.3883 C.ar    1  UNL1        0.0207
      5 C         142.0798  137.7701  156.9973 C.ar    1  UNL1        0.0221
      6 C         141.4165  138.3390  155.7781 C.ar    1  UNL1        0.1178
      7 N         140.7239  139.3188  154.8779 N.pl3   1  UNL1       -0.2104
      8 S         140.0857  140.5912  154.4052 S.O2    1  UNL1        0.0759
      9 O         139.4503  141.0052  153.1110 O.2     1  UNL1       -0.1499
     10 O         140.0893  139.5074  153.3682 O.2     1  UNL1       -0.1499
     11 C         139.5788  142.0029  154.4170 C.ar    1  UNL1        0.1527
     12 C         139.2643  143.3835  154.9119 C.ar    1  UNL1        0.0293
     13 C         139.1802  144.5666  155.8302 C.ar    1  UNL1        0.0822
     14 C         138.5649  144.8263  154.4406 C.ar    1  UNL1        0.1468
     15 F         138.0580  146.2380  154.4525 F       1  UNL1       -0.2039
     16 C         138.4085  143.9835  153.2096 C.ar    1  UNL1        0.0608
     17 C         138.9154  142.5718  153.1978 C.ar    1  UNL1        0.1611
     18 F         138.7590  141.7291  151.9669 F       1  UNL1       -0.2027
     19 C         139.3366  145.4094  157.0612 C.2     1  UNL1        0.2483
     20 O         138.6983  146.6818  156.5885 O.2     1  UNL1       -0.2701
     21 N         139.7146  145.8103  158.4563 N.am    1  UNL1       -0.2968
     22 C         140.2687  145.7208  159.8473 C.3     1  UNL1        0.1181
     23 C         140.9321  145.1519  161.0665 C.ar    1  UNL1        0.0166
     24 C         141.0885  145.9947  162.2974 C.ar    1  UNL1        0.0962
     25 N         141.7518  145.4258  163.5165 N.ar    1  UNL1       -0.2426
     26 C         142.2588  144.0141  163.5047 C.ar    1  UNL1        0.0988
     27 C         142.1024  143.1713  162.2738 C.ar    1  UNL1        0.0190
     28 C         141.4391  143.7403  161.0547 C.ar    1  UNL1        0.0005
     29 C         142.7698  141.4880  162.4276 C.ar    1  UNL1        0.0045
     30 C         143.1479  141.8889  163.8227 C.ar    1  UNL1        0.0207
     31 C         143.8405  140.9091  164.7230 C.ar    1  UNL1        0.0988
     32 N         144.1549  139.5285  164.2280 N.ar    1  UNL1       -0.2438
     33 C         143.7769  139.1276  162.8329 C.ar    1  UNL1        0.0813
     34 C         144.0518  137.6321  162.1216 C.ar    1  UNL1        0.0191
     35 C         143.7056  137.1584  160.7410 C.ar    1  UNL1        0.0016
     36 C         143.0120  138.0815  159.7834 C.ar    1  UNL1        0.0016
     37 C         143.1684  138.9243  161.0144 C.ar    1  UNL1        0.0015
     38 C         143.0843  140.1074  161.9326 C.ar    1  UNL1        0.0177
     39 H         140.6213  138.7657  154.0700 H       1  UNL1        0.1739
     40 H         139.3819  146.7368  158.4640 H       1  UNL1        0.1501
     41 C         141.4093  135.1149  153.4809 C.3     1  UNL1        0.2543
     42 O         141.3529  136.5575  153.8881 O.3     1  UNL1       -0.4553
@<TRIPOS>BOND
     1    41    42    1
     2    42     1    1
     3     1     2   ar
     4     2     3   ar
     5     3     4   ar
     6     4     5   ar
     7     5     6   ar
     8     6     7    1
     9     7     8    1
    10     8     9    2
    11     8    10    2
    12     8    11    1
    13    11    12   ar
    14    12    13   ar
    15    13    14   ar
    16    14    15    1
    17    14    16   ar
    18    16    17   ar
    19    17    18    1
    20    13    19    1
    21    19    20    2
    22    19    21   am
    23    21    22    1
    24    22    23    1
    25    23    24   ar
    26    24    25   ar
    27    25    26   ar
    28    26    27   ar
    29    27    28   ar
    30    27    29    1
    31    29    30   ar
    32    30    31   ar
    33    31    32   ar
    34    32    33   ar
    35    33    34   ar
    36    34    35   ar
    37    35    36   ar
    38    36    37   ar
    39    37    38   ar
    40     6     1   ar
    41    17    11   ar
    42    28    23   ar
    43    38    29   ar
    44    36     4    1
    45    38    33   ar
    46     7    39    1
    47    21    40    1
