@<TRIPOS>MOLECULE
*****
 32 36 0 0 0
SMALL
GASTEIGER

@<TRIPOS>ATOM
      1 N         138.8058  138.5372  164.6645 N.3     1  UNL1       -0.2724
      2 C         138.0682  139.7020  164.0737 C.3     1  UNL1        0.0726
      3 C         138.1145  139.9469  162.5946 C.3     1  UNL1        0.0260
      4 C         138.8985  139.0270  161.7063 C.3     1  UNL1        0.0737
      5 C         139.6361  137.8622  162.2970 C.3     1  UNL1        0.0260
      6 C         139.5898  137.6173  163.7762 C.3     1  UNL1        0.0726
      7 C         139.6365  138.1972  160.6979 C.3     1  UNL1        0.0306
      8 C         139.4090  138.8021  159.3441 C.3     1  UNL1        0.1001
      9 N         138.5305  140.0058  159.5160 N.am    1  UNL1       -0.2425
     10 C         138.2150  140.1448  160.9758 C.2     1  UNL1        0.2296
     11 O         137.3652  141.2137  161.5963 O.2     1  UNL1       -0.2745
     12 C         138.0516  140.9114  158.4204 C.ar    1  UNL1        0.1574
     13 C         138.7362  142.2241  158.1794 C.ar    1  UNL1        0.0414
     14 C         138.2573  143.1298  157.0837 C.ar    1  UNL1        0.0651
     15 C         137.0938  142.7227  156.2290 C.ar    1  UNL1        0.2766
     16 O         136.6149  143.6283  155.1333 O.2     1  UNL1       -0.2655
     17 N         136.4092  141.4099  156.4699 N.ar    1  UNL1       -0.2134
     18 C         135.2457  141.0028  155.6152 C.3     1  UNL1        0.1571
     19 N         136.8882  140.5043  157.5656 N.ar    1  UNL1       -0.1513
     20 C         138.7595  138.2922  166.1437 C.3     1  UNL1        0.0768
     21 C         138.4968  139.4305  167.0846 C.3     1  UNL1        0.0433
     22 C         138.3801  140.1969  169.9827 C.3     1  UNL1        0.0305
     23 C         139.5860  140.5472  169.1623 C.ar    1  UNL1       -0.0260
     24 C         139.6444  140.1640  167.7132 C.ar    1  UNL1       -0.0249
     25 C         140.8503  140.5142  166.8928 C.ar    1  UNL1       -0.0043
     26 C         141.9979  141.2476  167.5215 C.ar    1  UNL1        0.0059
     27 C         141.9394  141.6309  168.9705 C.ar    1  UNL1        0.0748
     28 C         140.7335  141.2806  169.7909 C.ar    1  UNL1        0.0233
     29 C         140.9589  141.7856  171.1852 C.3     1  UNL1        0.2352
     30 O         142.3041  142.4479  171.2266 O.3     1  UNL1       -0.4404
     31 C         142.9101  142.3522  169.8578 C.2     1  UNL1        0.3413
     32 O         144.2513  142.8846  169.4482 O.2     1  UNL1       -0.2449
@<TRIPOS>BOND
     1    22    23    1
     2    23    24   ar
     3    24    21    1
     4    21    20    1
     5    20     1    1
     6     1     2    1
     7     2     3    1
     8     3     4    1
     9     4     5    1
    10     5     6    1
    11     4     7    1
    12     7     8    1
    13     8     9    1
    14     9    12    1
    15    12    13   ar
    16    13    14   ar
    17    14    15   ar
    18    15    16    2
    19    15    17   ar
    20    17    18    1
    21    17    19   ar
    22     9    10   am
    23    10    11    2
    24    24    25   ar
    25    25    26   ar
    26    26    27   ar
    27    27    28   ar
    28    28    29    1
    29    29    30    1
    30    30    31    1
    31    31    32    2
    32    28    23   ar
    33     6     1    1
    34    19    12   ar
    35    31    27    1
    36    10     4    1
@<TRIPOS>MOLECULE
*****
 32 36 0 0 0
SMALL
GASTEIGER

@<TRIPOS>ATOM
      1 N         138.7101  139.2111  165.0106 N.3     1  UNL1       -0.2724
      2 C         138.0980  140.3820  164.3005 C.3     1  UNL1        0.0726
      3 C         138.0855  140.4270  162.8013 C.3     1  UNL1        0.0260
      4 C         138.6850  139.3011  162.0121 C.3     1  UNL1        0.0737
      5 C         139.2971  138.1301  162.7221 C.3     1  UNL1        0.0260
      6 C         139.3097  138.0851  164.2214 C.3     1  UNL1        0.0726
      7 C         139.2436  138.2547  161.0939 C.3     1  UNL1        0.0306
      8 C         139.0155  138.7073  159.6820 C.3     1  UNL1        0.1001
      9 N         138.3159  140.0335  159.7277 N.am    1  UNL1       -0.2425
     10 C         138.1117  140.4004  161.1677 C.2     1  UNL1        0.2296
     11 O         137.4503  141.6477  161.6745 O.2     1  UNL1       -0.2745
     12 C         137.8946  140.8493  158.5417 C.ar    1  UNL1        0.1574
     13 C         138.6160  142.1227  158.2129 C.ar    1  UNL1        0.0414
     14 C         138.1946  142.9386  157.0268 C.ar    1  UNL1        0.0651
     15 C         137.0519  142.4812  156.1695 C.ar    1  UNL1        0.2766
     16 O         136.6305  143.2971  154.9834 O.2     1  UNL1       -0.2655
     17 N         136.3304  141.2077  156.4984 N.ar    1  UNL1       -0.2134
     18 C         135.1877  140.7503  155.6411 C.3     1  UNL1        0.1571
     19 N         136.7518  140.3919  157.6845 N.ar    1  UNL1       -0.1513
     20 C         138.7227  139.1660  166.5099 C.3     1  UNL1        0.0768
     21 C         139.8230  139.8436  167.2714 C.3     1  UNL1        0.0433
     22 C         140.1208  142.6937  166.3835 C.3     1  UNL1        0.0305
     23 C         141.2176  141.7062  166.1155 C.ar    1  UNL1       -0.0260
     24 C         141.0687  140.2812  166.5594 C.ar    1  UNL1       -0.0249
     25 C         142.1655  139.2936  166.2913 C.ar    1  UNL1       -0.0043
     26 C         143.4111  139.7311  165.5793 C.ar    1  UNL1        0.0059
     27 C         143.5600  141.1561  165.1354 C.ar    1  UNL1        0.0748
     28 C         142.4632  142.1437  165.4035 C.ar    1  UNL1        0.0233
     29 C         142.8901  143.4715  164.8516 C.3     1  UNL1        0.2352
     30 O         144.2506  143.3047  164.2425 O.3     1  UNL1       -0.4404
     31 C         144.6647  141.8737  164.4179 C.2     1  UNL1        0.3413
     32 O         145.9566  141.2668  163.9567 O.2     1  UNL1       -0.2449
@<TRIPOS>BOND
     1    22    23    1
     2    23    24   ar
     3    24    21    1
     4    21    20    1
     5    20     1    1
     6     1     2    1
     7     2     3    1
     8     3     4    1
     9     4     5    1
    10     5     6    1
    11     4     7    1
    12     7     8    1
    13     8     9    1
    14     9    12    1
    15    12    13   ar
    16    13    14   ar
    17    14    15   ar
    18    15    16    2
    19    15    17   ar
    20    17    18    1
    21    17    19   ar
    22     9    10   am
    23    10    11    2
    24    24    25   ar
    25    25    26   ar
    26    26    27   ar
    27    27    28   ar
    28    28    29    1
    29    29    30    1
    30    30    31    1
    31    31    32    2
    32    28    23   ar
    33     6     1    1
    34    19    12   ar
    35    31    27    1
    36    10     4    1
@<TRIPOS>MOLECULE
*****
 32 36 0 0 0
SMALL
GASTEIGER

@<TRIPOS>ATOM
      1 N         139.9333  138.2824  161.9102 N.3     1  UNL1       -0.2724
      2 C         139.1531  139.0660  162.9236 C.3     1  UNL1        0.0726
      3 C         139.7496  139.3556  164.2690 C.3     1  UNL1        0.0260
      4 C         141.1265  138.8616  164.6010 C.3     1  UNL1        0.0737
      5 C         141.9068  138.0780  163.5876 C.3     1  UNL1        0.0260
      6 C         141.3102  137.7884  162.2422 C.3     1  UNL1        0.0726
      7 C         142.4847  138.4350  165.0736 C.3     1  UNL1        0.0306
      8 C         142.6673  138.9384  166.4748 C.3     1  UNL1        0.1001
      9 N         141.4218  139.6761  166.8683 N.am    1  UNL1       -0.2425
     10 C         140.4696  139.6286  165.7103 C.2     1  UNL1        0.2296
     11 O         139.1008  140.2406  165.6686 O.2     1  UNL1       -0.2745
     12 C         141.1724  140.3439  168.1880 C.ar    1  UNL1        0.1574
     13 C         139.9454  140.0035  168.9808 C.ar    1  UNL1        0.0414
     14 C         139.6960  140.6714  170.3005 C.ar    1  UNL1        0.0651
     15 C         140.6735  141.6796  170.8275 C.ar    1  UNL1        0.2766
     16 O         140.4241  142.3475  172.1473 O.2     1  UNL1       -0.2655
     17 N         141.9006  142.0201  170.0347 N.ar    1  UNL1       -0.2134
     18 C         142.8782  143.0284  170.5616 C.3     1  UNL1        0.1571
     19 N         142.1499  141.3522  168.7149 N.ar    1  UNL1       -0.1513
     20 C         139.3368  137.9928  160.5647 C.3     1  UNL1        0.0768
     21 C         139.5510  138.9478  159.4280 C.3     1  UNL1        0.0433
     22 C         142.3003  140.1457  159.5073 C.3     1  UNL1        0.0305
     23 C         141.0980  141.0115  159.7411 C.ar    1  UNL1       -0.0260
     24 C         139.7233  140.4126  159.7014 C.ar    1  UNL1       -0.0249
     25 C         138.5209  141.2785  159.9352 C.ar    1  UNL1       -0.0043
     26 C         138.6932  142.7432  160.2086 C.ar    1  UNL1        0.0059
     27 C         140.0679  143.3421  160.2482 C.ar    1  UNL1        0.0748
     28 C         141.2702  142.4763  160.0145 C.ar    1  UNL1        0.0233
     29 C         142.4912  143.3419  160.1141 C.3     1  UNL1        0.2352
     30 O         142.0435  144.7427  160.4095 O.3     1  UNL1       -0.4404
     31 C         140.5458  144.7428  160.4924 C.2     1  UNL1        0.3413
     32 O         139.6782  145.9345  160.7705 O.2     1  UNL1       -0.2449
@<TRIPOS>BOND
     1    22    23    1
     2    23    24   ar
     3    24    21    1
     4    21    20    1
     5    20     1    1
     6     1     2    1
     7     2     3    1
     8     3     4    1
     9     4     5    1
    10     5     6    1
    11     4     7    1
    12     7     8    1
    13     8     9    1
    14     9    12    1
    15    12    13   ar
    16    13    14   ar
    17    14    15   ar
    18    15    16    2
    19    15    17   ar
    20    17    18    1
    21    17    19   ar
    22     9    10   am
    23    10    11    2
    24    24    25   ar
    25    25    26   ar
    26    26    27   ar
    27    27    28   ar
    28    28    29    1
    29    29    30    1
    30    30    31    1
    31    31    32    2
    32    28    23   ar
    33     6     1    1
    34    19    12   ar
    35    31    27    1
    36    10     4    1
@<TRIPOS>MOLECULE
*****
 32 36 0 0 0
SMALL
GASTEIGER

@<TRIPOS>ATOM
      1 N         139.6286  138.0561  164.2876 N.3     1  UNL1       -0.2724
      2 C         139.1360  138.1053  162.8717 C.3     1  UNL1        0.0726
      3 C         140.1164  138.1165  161.7365 C.3     1  UNL1        0.0260
      4 C         141.5894  138.0785  162.0173 C.3     1  UNL1        0.0737
      5 C         142.0820  138.0292  163.4332 C.3     1  UNL1        0.0260
      6 C         141.1016  138.0180  164.5684 C.3     1  UNL1        0.0726
      7 C         143.0838  138.0443  162.1426 C.3     1  UNL1        0.0306
      8 C         143.6656  138.0705  160.7602 C.3     1  UNL1        0.1001
      9 N         142.5307  138.1209  159.7806 N.am    1  UNL1       -0.2425
     10 C         141.2476  138.1259  160.5575 C.2     1  UNL1        0.2296
     11 O         139.8654  138.1703  159.9767 O.2     1  UNL1       -0.2745
     12 C         142.6568  138.1596  158.2864 C.ar    1  UNL1        0.1574
     13 C         142.2789  139.4008  157.5338 C.ar    1  UNL1        0.0414
     14 C         142.4050  139.4395  156.0396 C.ar    1  UNL1        0.0651
     15 C         142.9091  138.2370  155.2980 C.ar    1  UNL1        0.2766
     16 O         143.0353  138.2757  153.8038 O.2     1  UNL1       -0.2655
     17 N         143.2871  136.9957  156.0507 N.ar    1  UNL1       -0.2134
     18 C         143.7912  135.7932  155.3092 C.3     1  UNL1        0.1571
     19 N         143.1609  136.9571  157.5449 N.ar    1  UNL1       -0.1513
     20 C         138.6481  138.0449  165.4228 C.3     1  UNL1        0.0768
     21 C         138.1656  139.3381  166.0099 C.3     1  UNL1        0.0433
     22 C         140.5048  141.0909  166.6853 C.3     1  UNL1        0.0305
     23 C         139.5477  141.5006  165.6054 C.ar    1  UNL1       -0.0260
     24 C         138.3781  140.6242  165.2677 C.ar    1  UNL1       -0.0249
     25 C         137.4210  141.0339  164.1878 C.ar    1  UNL1       -0.0043
     26 C         137.6335  142.3200  163.4457 C.ar    1  UNL1        0.0059
     27 C         138.8030  143.1963  163.7833 C.ar    1  UNL1        0.0748
     28 C         139.7601  142.7867  164.8632 C.ar    1  UNL1        0.0233
     29 C         140.8147  143.8475  164.9748 C.3     1  UNL1        0.2352
     30 O         140.5095  144.9128  163.9639 O.3     1  UNL1       -0.4404
     31 C         139.2662  144.5104  163.2276 C.2     1  UNL1        0.3413
     32 O         138.6024  145.2858  162.1284 O.2     1  UNL1       -0.2449
@<TRIPOS>BOND
     1    22    23    1
     2    23    24   ar
     3    24    21    1
     4    21    20    1
     5    20     1    1
     6     1     2    1
     7     2     3    1
     8     3     4    1
     9     4     5    1
    10     5     6    1
    11     4     7    1
    12     7     8    1
    13     8     9    1
    14     9    12    1
    15    12    13   ar
    16    13    14   ar
    17    14    15   ar
    18    15    16    2
    19    15    17   ar
    20    17    18    1
    21    17    19   ar
    22     9    10   am
    23    10    11    2
    24    24    25   ar
    25    25    26   ar
    26    26    27   ar
    27    27    28   ar
    28    28    29    1
    29    29    30    1
    30    30    31    1
    31    31    32    2
    32    28    23   ar
    33     6     1    1
    34    19    12   ar
    35    31    27    1
    36    10     4    1
@<TRIPOS>MOLECULE
*****
 32 36 0 0 0
SMALL
GASTEIGER

@<TRIPOS>ATOM
      1 N         138.1778  140.0491  163.9441 N.3     1  UNL1       -0.2724
      2 C         138.0278  141.4388  163.3997 C.3     1  UNL1        0.0726
      3 C         138.1532  141.6843  161.9253 C.3     1  UNL1        0.0260
      4 C         138.4285  140.5401  160.9952 C.3     1  UNL1        0.0737
      5 C         138.5785  139.1504  161.5395 C.3     1  UNL1        0.0260
      6 C         138.4531  138.9050  163.0140 C.3     1  UNL1        0.0726
      7 C         138.7008  139.5009  159.9484 C.3     1  UNL1        0.0306
      8 C         138.7442  140.1865  158.6148 C.3     1  UNL1        0.1001
      9 N         138.4987  141.6494  158.8376 N.am    1  UNL1       -0.2425
     10 C         138.3036  141.8680  160.3087 C.2     1  UNL1        0.2296
     11 O         138.0313  143.1834  160.9762 O.2     1  UNL1       -0.2745
     12 C         138.4558  142.7079  157.7757 C.ar    1  UNL1        0.1574
     13 C         137.3353  142.7250  156.7786 C.ar    1  UNL1        0.0414
     14 C         137.2924  143.7835  155.7167 C.ar    1  UNL1        0.0651
     15 C         138.3700  144.8249  155.6518 C.ar    1  UNL1        0.2766
     16 O         138.3271  145.8835  154.5899 O.2     1  UNL1       -0.2655
     17 N         139.4905  144.8079  156.6489 N.ar    1  UNL1       -0.2134
     18 C         140.5681  145.8493  156.5840 C.3     1  UNL1        0.1571
     19 N         139.5334  143.7493  157.7108 N.ar    1  UNL1       -0.1513
     20 C         138.0524  139.8036  165.4186 C.3     1  UNL1        0.0768
     21 C         139.1828  139.1672  166.1717 C.3     1  UNL1        0.0433
     22 C         141.7281  140.6526  165.6100 C.3     1  UNL1        0.0305
     23 C         141.1422  140.6638  166.9908 C.ar    1  UNL1       -0.0260
     24 C         139.8696  139.9212  167.2717 C.ar    1  UNL1       -0.0249
     25 C         139.2838  139.9324  168.6525 C.ar    1  UNL1       -0.0043
     26 C         139.9706  140.6863  169.7524 C.ar    1  UNL1        0.0059
     27 C         141.2432  141.4290  169.4716 C.ar    1  UNL1        0.0748
     28 C         141.8290  141.4177  168.0908 C.ar    1  UNL1        0.0233
     29 C         143.0859  142.2360  168.1139 C.3     1  UNL1        0.2352
     30 O         143.2769  142.7530  169.5089 O.3     1  UNL1       -0.4404
     31 C         142.1380  142.2542  170.3480 C.2     1  UNL1        0.3413
     32 O         141.9304  142.5319  171.8074 O.2     1  UNL1       -0.2449
@<TRIPOS>BOND
     1    22    23    1
     2    23    24   ar
     3    24    21    1
     4    21    20    1
     5    20     1    1
     6     1     2    1
     7     2     3    1
     8     3     4    1
     9     4     5    1
    10     5     6    1
    11     4     7    1
    12     7     8    1
    13     8     9    1
    14     9    12    1
    15    12    13   ar
    16    13    14   ar
    17    14    15   ar
    18    15    16    2
    19    15    17   ar
    20    17    18    1
    21    17    19   ar
    22     9    10   am
    23    10    11    2
    24    24    25   ar
    25    25    26   ar
    26    26    27   ar
    27    27    28   ar
    28    28    29    1
    29    29    30    1
    30    30    31    1
    31    31    32    2
    32    28    23   ar
    33     6     1    1
    34    19    12   ar
    35    31    27    1
    36    10     4    1
@<TRIPOS>MOLECULE
*****
 32 36 0 0 0
SMALL
GASTEIGER

@<TRIPOS>ATOM
      1 N         144.5821  141.8819  163.2024 N.3     1  UNL1       -0.2724
      2 C         144.5316  141.7407  161.7100 C.3     1  UNL1        0.0726
      3 C         143.5876  142.5867  160.9082 C.3     1  UNL1        0.0260
      4 C         142.6941  143.5740  161.5988 C.3     1  UNL1        0.0737
      5 C         142.7446  143.7152  163.0912 C.3     1  UNL1        0.0260
      6 C         143.6886  142.8691  163.8931 C.3     1  UNL1        0.0726
      7 C         141.7454  144.5984  162.1472 C.3     1  UNL1        0.0306
      8 C         140.9979  145.2017  160.9950 C.3     1  UNL1        0.1001
      9 N         141.4847  144.5502  159.7346 N.am    1  UNL1       -0.2425
     10 C         142.5329  143.5442  160.1077 C.2     1  UNL1        0.2296
     11 O         143.2875  142.6632  159.1568 O.2     1  UNL1       -0.2745
     12 C         141.0070  144.8517  158.3451 C.ar    1  UNL1        0.1574
     13 C         141.7523  145.8356  157.4928 C.ar    1  UNL1        0.0414
     14 C         141.2746  146.1371  156.1032 C.ar    1  UNL1        0.0651
     15 C         140.0517  145.4548  155.5659 C.ar    1  UNL1        0.2766
     16 O         139.5740  145.7563  154.1763 O.2     1  UNL1       -0.2655
     17 N         139.3063  144.4708  156.4182 N.ar    1  UNL1       -0.2134
     18 C         138.0833  143.7884  155.8809 C.3     1  UNL1        0.1571
     19 N         139.7840  144.1693  157.8078 N.ar    1  UNL1       -0.1513
     20 C         145.5262  141.0358  164.0043 C.3     1  UNL1        0.0768
     21 C         145.1597  139.6223  164.3473 C.3     1  UNL1        0.0433
     22 C         143.6283  138.2768  162.1464 C.3     1  UNL1        0.0305
     23 C         142.9558  138.5766  163.4532 C.ar    1  UNL1       -0.0260
     24 C         143.7215  139.2493  164.5537 C.ar    1  UNL1       -0.0249
     25 C         143.0491  139.5491  165.8606 C.ar    1  UNL1       -0.0043
     26 C         141.6110  139.1762  166.0670 C.ar    1  UNL1        0.0059
     27 C         140.8453  138.5034  164.9666 C.ar    1  UNL1        0.0748
     28 C         141.5177  138.2037  163.6597 C.ar    1  UNL1        0.0233
     29 C         140.5153  137.5368  162.7649 C.3     1  UNL1        0.2352
     30 O         139.2234  137.4245  163.5188 O.3     1  UNL1       -0.4404
     31 C         139.4273  138.0219  164.8795 C.2     1  UNL1        0.3413
     32 O         138.3946  138.1204  165.9629 O.2     1  UNL1       -0.2449
@<TRIPOS>BOND
     1    22    23    1
     2    23    24   ar
     3    24    21    1
     4    21    20    1
     5    20     1    1
     6     1     2    1
     7     2     3    1
     8     3     4    1
     9     4     5    1
    10     5     6    1
    11     4     7    1
    12     7     8    1
    13     8     9    1
    14     9    12    1
    15    12    13   ar
    16    13    14   ar
    17    14    15   ar
    18    15    16    2
    19    15    17   ar
    20    17    18    1
    21    17    19   ar
    22     9    10   am
    23    10    11    2
    24    24    25   ar
    25    25    26   ar
    26    26    27   ar
    27    27    28   ar
    28    28    29    1
    29    29    30    1
    30    30    31    1
    31    31    32    2
    32    28    23   ar
    33     6     1    1
    34    19    12   ar
    35    31    27    1
    36    10     4    1
@<TRIPOS>MOLECULE
*****
 32 36 0 0 0
SMALL
GASTEIGER

@<TRIPOS>ATOM
      1 N         142.9278  142.8354  164.0967 N.3     1  UNL1       -0.2724
      2 C         142.9188  142.2791  162.7037 C.3     1  UNL1        0.0726
      3 C         142.1652  142.9881  161.6178 C.3     1  UNL1        0.0260
      4 C         141.4205  144.2534  161.9249 C.3     1  UNL1        0.0737
      5 C         141.4295  144.8098  163.3178 C.3     1  UNL1        0.0260
      6 C         142.1831  144.1008  164.4037 C.3     1  UNL1        0.0726
      7 C         140.6338  145.5211  162.0806 C.3     1  UNL1        0.0306
      8 C         140.0482  145.8704  160.7444 C.3     1  UNL1        0.1001
      9 N         140.4730  144.8186  159.7629 N.am    1  UNL1       -0.2425
     10 C         141.3211  143.8193  160.4924 C.2     1  UNL1        0.2296
     11 O         141.9579  142.5999  159.8946 O.2     1  UNL1       -0.2745
     12 C         140.1130  144.7739  158.3076 C.ar    1  UNL1        0.1574
     13 C         139.5521  143.5167  157.7119 C.ar    1  UNL1        0.0414
     14 C         139.1920  143.4721  156.2564 C.ar    1  UNL1        0.0651
     15 C         139.3928  144.6847  155.3966 C.ar    1  UNL1        0.2766
     16 O         139.0328  144.6401  153.9411 O.2     1  UNL1       -0.2655
     17 N         139.9537  145.9420  155.9923 N.ar    1  UNL1       -0.2134
     18 C         140.1546  147.1546  155.1324 C.3     1  UNL1        0.1571
     19 N         140.3138  145.9865  157.4477 N.ar    1  UNL1       -0.1513
     20 C         143.6815  142.1264  165.1827 C.3     1  UNL1        0.0768
     21 C         143.5851  142.6080  166.6000 C.3     1  UNL1        0.0433
     22 C         144.0608  142.5137  169.5605 C.3     1  UNL1        0.0305
     23 C         142.7700  142.0036  168.9917 C.ar    1  UNL1       -0.0260
     24 C         142.5321  142.0507  167.5115 C.ar    1  UNL1       -0.0249
     25 C         141.2413  141.5406  166.9426 C.ar    1  UNL1       -0.0043
     26 C         140.1883  140.9834  167.8541 C.ar    1  UNL1        0.0059
     27 C         140.4262  140.9362  169.3343 C.ar    1  UNL1        0.0748
     28 C         141.7170  141.4464  169.9031 C.ar    1  UNL1        0.0233
     29 C         141.6683  141.2721  171.3922 C.3     1  UNL1        0.2352
     30 O         140.3474  140.6543  171.7437 O.3     1  UNL1       -0.4404
     31 C         139.5798  140.4468  170.4718 C.2     1  UNL1        0.3413
     32 O         138.2067  139.8538  170.3575 O.2     1  UNL1       -0.2449
@<TRIPOS>BOND
     1    22    23    1
     2    23    24   ar
     3    24    21    1
     4    21    20    1
     5    20     1    1
     6     1     2    1
     7     2     3    1
     8     3     4    1
     9     4     5    1
    10     5     6    1
    11     4     7    1
    12     7     8    1
    13     8     9    1
    14     9    12    1
    15    12    13   ar
    16    13    14   ar
    17    14    15   ar
    18    15    16    2
    19    15    17   ar
    20    17    18    1
    21    17    19   ar
    22     9    10   am
    23    10    11    2
    24    24    25   ar
    25    25    26   ar
    26    26    27   ar
    27    27    28   ar
    28    28    29    1
    29    29    30    1
    30    30    31    1
    31    31    32    2
    32    28    23   ar
    33     6     1    1
    34    19    12   ar
    35    31    27    1
    36    10     4    1
@<TRIPOS>MOLECULE
*****
 32 36 0 0 0
SMALL
GASTEIGER

@<TRIPOS>ATOM
      1 N         143.8604  139.2138  162.0492 N.3     1  UNL1       -0.2724
      2 C         143.0742  138.7380  163.2347 C.3     1  UNL1        0.0726
      3 C         142.9497  139.6080  164.4502 C.3     1  UNL1        0.0260
      4 C         143.6114  140.9539  164.4802 C.3     1  UNL1        0.0737
      5 C         144.3976  141.4297  163.2947 C.3     1  UNL1        0.0260
      6 C         144.5221  140.5596  162.0792 C.3     1  UNL1        0.0726
      7 C         144.2146  142.3161  164.6550 C.3     1  UNL1        0.0306
      8 C         143.8378  142.8186  166.0173 C.3     1  UNL1        0.1001
      9 N         143.0018  141.7669  166.6844 N.am    1  UNL1       -0.2425
     10 C         142.8619  140.6144  165.7345 C.2     1  UNL1        0.2296
     11 O         142.1054  139.3454  165.9933 O.2     1  UNL1       -0.2745
     12 C         142.4097  141.8525  168.0599 C.ar    1  UNL1        0.1574
     13 C         143.1814  142.5034  169.1693 C.ar    1  UNL1        0.0414
     14 C         142.5893  142.5891  170.5449 C.ar    1  UNL1        0.0651
     15 C         141.2255  142.0239  170.8109 C.ar    1  UNL1        0.2766
     16 O         140.6334  142.1096  172.1865 O.2     1  UNL1       -0.2655
     17 N         140.4538  141.3730  169.7014 N.ar    1  UNL1       -0.2134
     18 C         139.0901  140.8079  169.9675 C.3     1  UNL1        0.1571
     19 N         141.0460  141.2874  168.3259 N.ar    1  UNL1       -0.1513
     20 C         143.9849  138.3438  160.8336 C.3     1  UNL1        0.0768
     21 C         142.9488  138.4145  159.7514 C.3     1  UNL1        0.0433
     22 C         140.1905  138.7253  160.8895 C.3     1  UNL1        0.0305
     23 C         140.8046  139.8405  160.0964 C.ar    1  UNL1       -0.0260
     24 C         142.1837  139.6852  159.5273 C.ar    1  UNL1       -0.0249
     25 C         142.7979  140.8004  158.7342 C.ar    1  UNL1       -0.0043
     26 C         142.0329  142.0711  158.5102 C.ar    1  UNL1        0.0059
     27 C         140.6538  142.2265  159.0792 C.ar    1  UNL1        0.0748
     28 C         140.0396  141.1112  159.8723 C.ar    1  UNL1        0.0233
     29 C         138.6725  141.5496  160.3069 C.3     1  UNL1        0.2352
     30 O         138.4417  142.9358  159.7823 O.3     1  UNL1       -0.4404
     31 C         139.6662  143.3541  159.0236 C.2     1  UNL1        0.3413
     32 O         139.8678  144.6692  158.3309 O.2     1  UNL1       -0.2449
@<TRIPOS>BOND
     1    22    23    1
     2    23    24   ar
     3    24    21    1
     4    21    20    1
     5    20     1    1
     6     1     2    1
     7     2     3    1
     8     3     4    1
     9     4     5    1
    10     5     6    1
    11     4     7    1
    12     7     8    1
    13     8     9    1
    14     9    12    1
    15    12    13   ar
    16    13    14   ar
    17    14    15   ar
    18    15    16    2
    19    15    17   ar
    20    17    18    1
    21    17    19   ar
    22     9    10   am
    23    10    11    2
    24    24    25   ar
    25    25    26   ar
    26    26    27   ar
    27    27    28   ar
    28    28    29    1
    29    29    30    1
    30    30    31    1
    31    31    32    2
    32    28    23   ar
    33     6     1    1
    34    19    12   ar
    35    31    27    1
    36    10     4    1
@<TRIPOS>MOLECULE
*****
 32 36 0 0 0
SMALL
GASTEIGER

@<TRIPOS>ATOM
      1 N         144.7920  141.8166  162.7324 N.3     1  UNL1       -0.2724
      2 C         144.3327  140.4002  162.5514 C.3     1  UNL1        0.0726
      3 C         143.8898  139.9222  161.2004 C.3     1  UNL1        0.0260
      4 C         143.9063  140.8607  160.0303 C.3     1  UNL1        0.0737
      5 C         144.3656  142.2771  160.2113 C.3     1  UNL1        0.0260
      6 C         144.8085  142.7550  161.5623 C.3     1  UNL1        0.0726
      7 C         143.8682  141.6796  158.7742 C.3     1  UNL1        0.0306
      8 C         143.3621  140.8049  157.6656 C.3     1  UNL1        0.1001
      9 N         143.0874  139.4452  158.2367 N.am    1  UNL1       -0.2425
     10 C         143.4237  139.4797  159.6981 C.2     1  UNL1        0.2296
     11 O         143.2993  138.3345  160.6588 O.2     1  UNL1       -0.2745
     12 C         142.5676  138.2595  157.4794 C.ar    1  UNL1        0.1574
     13 C         141.2978  138.3721  156.6890 C.ar    1  UNL1        0.0414
     14 C         140.7781  137.1863  155.9316 C.ar    1  UNL1        0.0651
     15 C         141.5281  135.8877  155.9647 C.ar    1  UNL1        0.2766
     16 O         141.0084  134.7018  155.2073 O.2     1  UNL1       -0.2655
     17 N         142.7981  135.7750  156.7551 N.ar    1  UNL1       -0.2134
     18 C         143.5481  134.4764  156.7882 C.3     1  UNL1        0.1571
     19 N         143.3177  136.9609  157.5125 N.ar    1  UNL1       -0.1513
     20 C         145.2349  142.2947  164.0835 C.3     1  UNL1        0.0768
     21 C         144.4183  143.3120  164.8239 C.3     1  UNL1        0.0433
     22 C         142.3400  141.4917  165.9933 C.3     1  UNL1        0.0305
     23 C         141.9322  142.5968  165.0645 C.ar    1  UNL1       -0.0260
     24 C         142.9713  143.5069  164.4798 C.ar    1  UNL1       -0.0249
     25 C         142.5636  144.6119  163.5510 C.ar    1  UNL1       -0.0043
     26 C         141.1167  144.8068  163.2069 C.ar    1  UNL1        0.0059
     27 C         140.0776  143.8967  163.7915 C.ar    1  UNL1        0.0748
     28 C         140.4853  142.7917  164.7203 C.ar    1  UNL1        0.0233
     29 C         139.2462  142.0575  165.1394 C.3     1  UNL1        0.2352
     30 O         138.0726  142.7088  164.4696 O.3     1  UNL1       -0.4404
     31 C         138.5865  143.8454  163.6366 C.2     1  UNL1        0.3413
     32 O         137.7551  144.7688  162.7962 O.2     1  UNL1       -0.2449
@<TRIPOS>BOND
     1    22    23    1
     2    23    24   ar
     3    24    21    1
     4    21    20    1
     5    20     1    1
     6     1     2    1
     7     2     3    1
     8     3     4    1
     9     4     5    1
    10     5     6    1
    11     4     7    1
    12     7     8    1
    13     8     9    1
    14     9    12    1
    15    12    13   ar
    16    13    14   ar
    17    14    15   ar
    18    15    16    2
    19    15    17   ar
    20    17    18    1
    21    17    19   ar
    22     9    10   am
    23    10    11    2
    24    24    25   ar
    25    25    26   ar
    26    26    27   ar
    27    27    28   ar
    28    28    29    1
    29    29    30    1
    30    30    31    1
    31    31    32    2
    32    28    23   ar
    33     6     1    1
    34    19    12   ar
    35    31    27    1
    36    10     4    1
