@<TRIPOS>MOLECULE
*****
 33 37 0 0 0
SMALL
GASTEIGER

@<TRIPOS>ATOM
      1 C         141.6325  144.7699  162.0450 C.3     1  UNL1        0.0730
      2 N         142.7017  143.8959  162.6309 N.3     1  UNL1       -0.2724
      3 C         144.0847  143.7065  162.0818 C.3     1  UNL1        0.0724
      4 C         144.8133  142.7515  162.9802 C.3     1  UNL1        0.0214
      5 C         145.2729  141.7942  164.0397 C.3     1  UNL1        0.0072
      6 C         143.8806  142.3506  164.0845 C.3     1  UNL1        0.0350
      7 C         142.5755  143.0579  163.8686 C.3     1  UNL1        0.0761
      8 C         143.4633  141.6290  165.3315 C.ar    1  UNL1       -0.0215
      9 C         143.2786  140.1406  165.3106 C.ar    1  UNL1       -0.0043
     10 C         142.8613  139.4190  166.5576 C.ar    1  UNL1        0.0035
     11 C         142.6289  140.1858  167.8257 C.ar    1  UNL1        0.0714
     12 C         142.8136  141.6742  167.8466 C.ar    1  UNL1        0.0035
     13 C         143.2308  142.3959  166.5996 C.ar    1  UNL1       -0.0043
     14 C         142.2116  139.4642  169.0727 C.3     1  UNL1        0.4186
     15 F         141.7944  138.7426  170.3198 F       1  UNL1       -0.1659
     16 F         141.2923  140.5973  169.4209 F       1  UNL1       -0.1659
     17 F         143.1308  138.3312  168.7246 F       1  UNL1       -0.1659
     18 C         141.4367  144.8213  160.5588 C.3     1  UNL1        0.0294
     19 C         140.1240  144.4102  159.9606 C.3     1  UNL1        0.0666
     20 S         139.8129  142.9563  159.7620 S.3     1  UNL1       -0.0756
     21 C         139.9972  140.6544  162.8817 C.ar    1  UNL1        0.1680
     22 N         141.2312  140.2354  162.1390 N.ar    1  UNL1       -0.1282
     23 N         141.3124  141.0467  160.8800 N.ar    1  UNL1       -0.1221
     24 C         140.1285  141.9671  160.8445 C.ar    1  UNL1        0.1932
     25 N         139.3157  141.7246  162.0816 N.ar    1  UNL1       -0.2884
     26 C         138.0445  142.4288  162.4534 C.3     1  UNL1        0.1340
     27 C         138.7708  137.9191  163.0023 C.3     1  UNL1        0.0522
     28 C         138.9139  138.7328  164.2543 C.ar    1  UNL1        0.0623
     29 N         138.4439  138.1788  165.5666 N.ar    1  UNL1       -0.2480
     30 C         138.5870  138.9925  166.8186 C.ar    1  UNL1        0.0984
     31 C         139.2002  140.3601  166.7583 C.ar    1  UNL1        0.0208
     32 C         139.6702  140.9140  165.4460 C.ar    1  UNL1        0.0058
     33 C         139.5271  140.1004  164.1940 C.ar    1  UNL1        0.0495
@<TRIPOS>BOND
     1    27    28    1
     2    28    29   ar
     3    29    30   ar
     4    30    31   ar
     5    31    32   ar
     6    32    33   ar
     7    33    21    1
     8    21    22   ar
     9    22    23   ar
    10    23    24   ar
    11    24    20    1
    12    20    19    1
    13    19    18    1
    14    18     1    1
    15     1     2    1
    16     2     3    1
    17     4     3    1
    18     4     5    1
    19     5     6    1
    20     6     8    1
    21     8     9   ar
    22     9    10   ar
    23    10    11   ar
    24    11    14    1
    25    14    15    1
    26    14    16    1
    27    14    17    1
    28    11    12   ar
    29    12    13   ar
    30     6     7    1
    31    24    25   ar
    32    25    26    1
    33    33    28   ar
    34    25    21   ar
    35     7     2    1
    36     6     4    1
    37    13     8   ar
@<TRIPOS>MOLECULE
*****
 33 37 0 0 0
SMALL
GASTEIGER

@<TRIPOS>ATOM
      1 C         141.2749  145.8177  163.1976 C.3     1  UNL1        0.0730
      2 N         142.3184  144.7664  163.4342 N.3     1  UNL1       -0.2724
      3 C         143.5561  144.5523  162.6142 C.3     1  UNL1        0.0724
      4 C         144.3101  143.3982  163.2056 C.3     1  UNL1        0.0214
      5 C         144.8279  142.2382  164.0032 C.3     1  UNL1        0.0072
      6 C         143.5383  142.8991  164.3911 C.3     1  UNL1        0.0350
      7 C         142.3074  143.7447  164.5324 C.3     1  UNL1        0.0761
      8 C         143.2577  142.0155  165.5703 C.ar    1  UNL1       -0.0215
      9 C         143.1400  142.6105  166.9422 C.ar    1  UNL1       -0.0043
     10 C         142.8594  141.7269  168.1214 C.ar    1  UNL1        0.0035
     11 C         142.6965  140.2483  167.9287 C.ar    1  UNL1        0.0714
     12 C         142.8142  139.6533  166.5568 C.ar    1  UNL1        0.0035
     13 C         143.0948  140.5369  165.3776 C.ar    1  UNL1       -0.0043
     14 C         142.4159  139.3647  169.1079 C.3     1  UNL1        0.4186
     15 F         142.1354  138.4811  170.2871 F       1  UNL1       -0.1659
     16 F         143.1324  138.2338  168.4311 F       1  UNL1       -0.1659
     17 F         141.6995  140.4955  169.7847 F       1  UNL1       -0.1659
     18 C         140.2108  145.5988  162.1633 C.3     1  UNL1        0.0294
     19 C         140.5894  145.1686  160.7771 C.3     1  UNL1        0.0666
     20 S         140.0441  143.8900  160.2135 S.3     1  UNL1       -0.0756
     21 C         138.7244  141.1281  162.6000 C.ar    1  UNL1        0.1680
     22 N         137.4610  141.8780  162.2979 N.ar    1  UNL1       -0.1282
     23 N         137.8015  143.0039  161.3671 N.ar    1  UNL1       -0.1221
     24 C         139.2755  142.9498  161.0940 C.ar    1  UNL1        0.1932
     25 N         139.8459  141.7905  161.8560 N.ar    1  UNL1       -0.2884
     26 C         141.2850  141.3678  161.8712 C.3     1  UNL1        0.1340
     27 C         139.4209  141.4717  165.4978 C.3     1  UNL1        0.0522
     28 C         139.1935  140.0985  164.9388 C.ar    1  UNL1        0.0623
     29 N         139.3143  138.8971  165.8287 N.ar    1  UNL1       -0.2480
     30 C         139.0869  137.5238  165.2698 C.ar    1  UNL1        0.0984
     31 C         138.7387  137.3519  163.8209 C.ar    1  UNL1        0.0208
     32 C         138.6179  138.5533  162.9311 C.ar    1  UNL1        0.0058
     33 C         138.8453  139.9266  163.4900 C.ar    1  UNL1        0.0495
@<TRIPOS>BOND
     1    27    28    1
     2    28    29   ar
     3    29    30   ar
     4    30    31   ar
     5    31    32   ar
     6    32    33   ar
     7    33    21    1
     8    21    22   ar
     9    22    23   ar
    10    23    24   ar
    11    24    20    1
    12    20    19    1
    13    19    18    1
    14    18     1    1
    15     1     2    1
    16     2     3    1
    17     4     3    1
    18     4     5    1
    19     5     6    1
    20     6     8    1
    21     8     9   ar
    22     9    10   ar
    23    10    11   ar
    24    11    14    1
    25    14    15    1
    26    14    16    1
    27    14    17    1
    28    11    12   ar
    29    12    13   ar
    30     6     7    1
    31    24    25   ar
    32    25    26    1
    33    33    28   ar
    34    25    21   ar
    35     7     2    1
    36     6     4    1
    37    13     8   ar
@<TRIPOS>MOLECULE
*****
 33 37 0 0 0
SMALL
GASTEIGER

@<TRIPOS>ATOM
      1 C         141.3366  144.4859  160.3800 C.3     1  UNL1        0.0730
      2 N         140.4462  144.4835  161.5873 N.3     1  UNL1       -0.2724
      3 C         139.7994  145.6862  162.2080 C.3     1  UNL1        0.0724
      4 C         138.9999  145.2241  163.3901 C.3     1  UNL1        0.0214
      5 C         138.3053  144.4780  164.4905 C.3     1  UNL1        0.0072
      6 C         139.1527  143.7359  163.4999 C.3     1  UNL1        0.0350
      7 C         140.0466  143.2782  162.3857 C.3     1  UNL1        0.0761
      8 C         138.9302  142.3754  164.0912 C.ar    1  UNL1       -0.0215
      9 C         138.1252  141.3548  163.3427 C.ar    1  UNL1       -0.0043
     10 C         137.9027  139.9943  163.9340 C.ar    1  UNL1        0.0035
     11 C         138.4852  139.6546  165.2739 C.ar    1  UNL1        0.0714
     12 C         139.2901  140.6752  166.0224 C.ar    1  UNL1        0.0035
     13 C         139.5127  142.0357  165.4311 C.ar    1  UNL1       -0.0043
     14 C         138.2627  138.2941  165.8652 C.3     1  UNL1        0.4186
     15 F         138.0402  136.9337  166.4566 F       1  UNL1       -0.1659
     16 F         137.8402  138.9254  167.1588 F       1  UNL1       -0.1659
     17 F         138.6851  137.6628  164.5718 F       1  UNL1       -0.1659
     18 C         141.8014  143.1883  159.7884 C.3     1  UNL1        0.0294
     19 C         143.2651  142.9473  159.5654 C.3     1  UNL1        0.0666
     20 S         143.8885  141.6566  160.0074 S.3     1  UNL1       -0.0756
     21 C         144.1915  140.8421  163.7903 C.ar    1  UNL1        0.1680
     22 N         145.5223  141.4806  163.5238 N.ar    1  UNL1       -0.1282
     23 N         145.5709  141.8635  162.0743 N.ar    1  UNL1       -0.1221
     24 C         144.2699  141.4616  161.4449 C.ar    1  UNL1        0.1932
     25 N         143.4174  140.8303  162.5055 N.ar    1  UNL1       -0.2884
     26 C         142.0338  140.2833  162.3147 C.3     1  UNL1        0.1340
     27 C         143.0266  142.7074  165.8309 C.3     1  UNL1        0.0522
     28 C         143.1353  141.2416  166.1302 C.ar    1  UNL1        0.0623
     29 N         142.6616  140.7084  167.4498 N.ar    1  UNL1       -0.2480
     30 C         142.7703  139.2426  167.7491 C.ar    1  UNL1        0.0984
     31 C         143.3527  138.3099  166.7288 C.ar    1  UNL1        0.0208
     32 C         143.8264  138.8431  165.4093 C.ar    1  UNL1        0.0058
     33 C         143.7177  140.3089  165.1100 C.ar    1  UNL1        0.0495
@<TRIPOS>BOND
     1    27    28    1
     2    28    29   ar
     3    29    30   ar
     4    30    31   ar
     5    31    32   ar
     6    32    33   ar
     7    33    21    1
     8    21    22   ar
     9    22    23   ar
    10    23    24   ar
    11    24    20    1
    12    20    19    1
    13    19    18    1
    14    18     1    1
    15     1     2    1
    16     2     3    1
    17     4     3    1
    18     4     5    1
    19     5     6    1
    20     6     8    1
    21     8     9   ar
    22     9    10   ar
    23    10    11   ar
    24    11    14    1
    25    14    15    1
    26    14    16    1
    27    14    17    1
    28    11    12   ar
    29    12    13   ar
    30     6     7    1
    31    24    25   ar
    32    25    26    1
    33    33    28   ar
    34    25    21   ar
    35     7     2    1
    36     6     4    1
    37    13     8   ar
@<TRIPOS>MOLECULE
*****
 33 37 0 0 0
SMALL
GASTEIGER

@<TRIPOS>ATOM
      1 C         143.9113  143.9037  163.8978 C.3     1  UNL1        0.0730
      2 N         142.4321  143.9345  164.1456 N.3     1  UNL1       -0.2724
      3 C         141.5315  145.1196  163.9593 C.3     1  UNL1        0.0724
      4 C         140.1367  144.7032  164.3217 C.3     1  UNL1        0.0214
      5 C         138.8751  144.0087  164.7414 C.3     1  UNL1        0.0072
      6 C         140.1754  143.2608  164.7319 C.3     1  UNL1        0.0350
      7 C         141.5941  142.7858  164.6231 C.3     1  UNL1        0.0761
      8 C         139.6092  141.9558  165.2075 C.ar    1  UNL1       -0.0215
      9 C         138.6552  141.1910  164.3386 C.ar    1  UNL1       -0.0043
     10 C         138.0889  139.8860  164.8141 C.ar    1  UNL1        0.0035
     11 C         138.4767  139.3456  166.1586 C.ar    1  UNL1        0.0714
     12 C         139.4307  140.1104  167.0275 C.ar    1  UNL1        0.0035
     13 C         139.9970  141.4155  166.5520 C.ar    1  UNL1       -0.0043
     14 C         137.9105  138.0406  166.6341 C.3     1  UNL1        0.4186
     15 F         137.3442  136.7355  167.1097 F       1  UNL1       -0.1659
     16 F         138.5013  137.3494  165.4411 F       1  UNL1       -0.1659
     17 F         137.3196  138.7316  167.8272 F       1  UNL1       -0.1659
     18 C         144.7770  142.9336  164.6457 C.3     1  UNL1        0.0294
     19 C         145.5619  141.8974  163.8973 C.3     1  UNL1        0.0666
     20 S         145.1152  140.4655  163.9082 S.3     1  UNL1       -0.0756
     21 C         141.7768  139.8099  162.0399 C.ar    1  UNL1        0.1680
     22 N         141.4466  139.2996  163.4112 N.ar    1  UNL1       -0.1282
     23 N         142.6569  139.4831  164.2780 N.ar    1  UNL1       -0.1221
     24 C         143.7353  140.1068  163.4424 C.ar    1  UNL1        0.1932
     25 N         143.1913  140.3088  162.0592 N.ar    1  UNL1       -0.2884
     26 C         143.9318  140.9050  160.8990 C.3     1  UNL1        0.1340
     27 C         140.4259  142.3574  161.2120 C.3     1  UNL1        0.0522
     28 C         140.1791  141.0934  160.4430 C.ar    1  UNL1        0.0623
     29 N         139.2568  141.1031  159.2601 N.ar    1  UNL1       -0.2480
     30 C         139.0100  139.8391  158.4911 C.ar    1  UNL1        0.0984
     31 C         139.6854  138.5654  158.9051 C.ar    1  UNL1        0.0208
     32 C         140.6077  138.5557  160.0880 C.ar    1  UNL1        0.0058
     33 C         140.8545  139.8197  160.8570 C.ar    1  UNL1        0.0495
@<TRIPOS>BOND
     1    27    28    1
     2    28    29   ar
     3    29    30   ar
     4    30    31   ar
     5    31    32   ar
     6    32    33   ar
     7    33    21    1
     8    21    22   ar
     9    22    23   ar
    10    23    24   ar
    11    24    20    1
    12    20    19    1
    13    19    18    1
    14    18     1    1
    15     1     2    1
    16     2     3    1
    17     4     3    1
    18     4     5    1
    19     5     6    1
    20     6     8    1
    21     8     9   ar
    22     9    10   ar
    23    10    11   ar
    24    11    14    1
    25    14    15    1
    26    14    16    1
    27    14    17    1
    28    11    12   ar
    29    12    13   ar
    30     6     7    1
    31    24    25   ar
    32    25    26    1
    33    33    28   ar
    34    25    21   ar
    35     7     2    1
    36     6     4    1
    37    13     8   ar
@<TRIPOS>MOLECULE
*****
 33 37 0 0 0
SMALL
GASTEIGER

@<TRIPOS>ATOM
      1 C         143.7301  138.6468  163.1335 C.3     1  UNL1        0.0730
      2 N         143.8937  140.0199  163.7150 N.3     1  UNL1       -0.2724
      3 C         144.8259  141.0836  163.2152 C.3     1  UNL1        0.0724
      4 C         144.6623  142.2913  164.0897 C.3     1  UNL1        0.0214
      5 C         144.2874  143.3218  165.1133 C.3     1  UNL1        0.0072
      6 C         143.6290  141.9740  165.1297 C.3     1  UNL1        0.0350
      7 C         143.1540  140.5702  164.8981 C.3     1  UNL1        0.0761
      8 C         142.7516  142.2426  166.3164 C.ar    1  UNL1       -0.0215
      9 C         141.2987  142.5587  166.1187 C.ar    1  UNL1       -0.0043
     10 C         140.4214  142.8273  167.3053 C.ar    1  UNL1        0.0035
     11 C         140.9970  142.7797  168.6897 C.ar    1  UNL1        0.0714
     12 C         142.4499  142.4636  168.8874 C.ar    1  UNL1        0.0035
     13 C         143.3273  142.1950  167.7007 C.ar    1  UNL1       -0.0043
     14 C         140.1196  143.0483  169.8763 C.3     1  UNL1        0.4186
     15 F         139.2423  143.3169  171.0629 F       1  UNL1       -0.1659
     16 F         139.5273  141.6761  169.7490 F       1  UNL1       -0.1659
     17 F         140.7120  144.4205  170.0037 F       1  UNL1       -0.1659
     18 C         144.1335  138.3808  161.7134 C.3     1  UNL1        0.0294
     19 C         143.1907  137.6729  160.7860 C.3     1  UNL1        0.0666
     20 S         142.4266  138.4509  159.7560 S.3     1  UNL1       -0.0756
     21 C         141.4242  142.0610  160.7698 C.ar    1  UNL1        0.1680
     22 N         142.3709  142.3301  159.6379 N.ar    1  UNL1       -0.1282
     23 N         142.8616  141.0106  159.1203 N.ar    1  UNL1       -0.1221
     24 C         142.2182  139.9258  159.9324 C.ar    1  UNL1        0.1932
     25 N         141.3299  140.5750  160.9518 N.ar    1  UNL1       -0.2884
     26 C         140.4939  139.8633  161.9739 C.3     1  UNL1        0.1340
     27 C         138.5096  142.5758  160.2798 C.3     1  UNL1        0.0522
     28 C         139.2419  143.3534  161.3329 C.ar    1  UNL1        0.0623
     29 N         138.5169  144.3885  162.1410 N.ar    1  UNL1       -0.2480
     30 C         139.2492  145.1661  163.1941 C.ar    1  UNL1        0.0984
     31 C         140.7064  144.9087  163.4391 C.ar    1  UNL1        0.0208
     32 C         141.4314  143.8737  162.6310 C.ar    1  UNL1        0.0058
     33 C         140.6992  143.0961  161.5779 C.ar    1  UNL1        0.0495
@<TRIPOS>BOND
     1    27    28    1
     2    28    29   ar
     3    29    30   ar
     4    30    31   ar
     5    31    32   ar
     6    32    33   ar
     7    33    21    1
     8    21    22   ar
     9    22    23   ar
    10    23    24   ar
    11    24    20    1
    12    20    19    1
    13    19    18    1
    14    18     1    1
    15     1     2    1
    16     2     3    1
    17     4     3    1
    18     4     5    1
    19     5     6    1
    20     6     8    1
    21     8     9   ar
    22     9    10   ar
    23    10    11   ar
    24    11    14    1
    25    14    15    1
    26    14    16    1
    27    14    17    1
    28    11    12   ar
    29    12    13   ar
    30     6     7    1
    31    24    25   ar
    32    25    26    1
    33    33    28   ar
    34    25    21   ar
    35     7     2    1
    36     6     4    1
    37    13     8   ar
@<TRIPOS>MOLECULE
*****
 33 37 0 0 0
SMALL
GASTEIGER

@<TRIPOS>ATOM
      1 C         140.8729  137.2970  162.5765 C.3     1  UNL1        0.0730
      2 N         142.0247  138.0733  163.1431 N.3     1  UNL1       -0.2724
      3 C         143.3412  138.3173  162.4667 C.3     1  UNL1        0.0724
      4 C         144.1923  139.1366  163.3911 C.3     1  UNL1        0.0214
      5 C         144.7946  139.9399  164.5055 C.3     1  UNL1        0.0072
      6 C         143.4018  139.3988  164.6387 C.3     1  UNL1        0.0350
      7 C         142.0622  138.7417  164.4854 C.3     1  UNL1        0.0761
      8 C         143.1482  139.9542  166.0088 C.ar    1  UNL1       -0.0215
      9 C         143.1423  141.4381  166.2274 C.ar    1  UNL1       -0.0043
     10 C         142.8887  141.9934  167.5975 C.ar    1  UNL1        0.0035
     11 C         142.6409  141.0647  168.7491 C.ar    1  UNL1        0.0714
     12 C         142.6468  139.5807  168.5305 C.ar    1  UNL1        0.0035
     13 C         142.9004  139.0254  167.1604 C.ar    1  UNL1       -0.0043
     14 C         142.3872  141.6200  170.1193 C.3     1  UNL1        0.4186
     15 F         142.1336  142.1753  171.4894 F       1  UNL1       -0.1659
     16 F         143.4218  142.6798  169.8813 F       1  UNL1       -0.1659
     17 F         141.3527  140.5602  170.3573 F       1  UNL1       -0.1659
     18 C         140.0002  137.9117  161.5227 C.3     1  UNL1        0.0294
     19 C         138.5329  138.0928  161.7759 C.3     1  UNL1        0.0666
     20 S         137.9988  139.4410  162.1595 S.3     1  UNL1       -0.0756
     21 C         140.4407  142.0743  163.6319 C.ar    1  UNL1        0.1680
     22 N         139.8080  141.5356  164.8807 N.ar    1  UNL1       -0.1282
     23 N         138.8162  140.4836  164.4811 N.ar    1  UNL1       -0.1221
     24 C         138.8360  140.3721  162.9854 C.ar    1  UNL1        0.1932
     25 N         139.8400  141.3552  162.4605 N.ar    1  UNL1       -0.2884
     26 C         140.1830  141.5798  161.0177 C.3     1  UNL1        0.1340
     27 C         139.7606  144.8920  164.4053 C.3     1  UNL1        0.0522
     28 C         141.1499  144.5531  163.9527 C.ar    1  UNL1        0.0623
     29 N         142.1992  145.6230  163.8868 N.ar    1  UNL1       -0.2480
     30 C         143.5885  145.2841  163.4342 C.ar    1  UNL1        0.0984
     31 C         143.9286  143.8753  163.0475 C.ar    1  UNL1        0.0208
     32 C         142.8794  142.8054  163.1134 C.ar    1  UNL1        0.0058
     33 C         141.4900  143.1443  163.5660 C.ar    1  UNL1        0.0495
@<TRIPOS>BOND
     1    27    28    1
     2    28    29   ar
     3    29    30   ar
     4    30    31   ar
     5    31    32   ar
     6    32    33   ar
     7    33    21    1
     8    21    22   ar
     9    22    23   ar
    10    23    24   ar
    11    24    20    1
    12    20    19    1
    13    19    18    1
    14    18     1    1
    15     1     2    1
    16     2     3    1
    17     4     3    1
    18     4     5    1
    19     5     6    1
    20     6     8    1
    21     8     9   ar
    22     9    10   ar
    23    10    11   ar
    24    11    14    1
    25    14    15    1
    26    14    16    1
    27    14    17    1
    28    11    12   ar
    29    12    13   ar
    30     6     7    1
    31    24    25   ar
    32    25    26    1
    33    33    28   ar
    34    25    21   ar
    35     7     2    1
    36     6     4    1
    37    13     8   ar
@<TRIPOS>MOLECULE
*****
 33 37 0 0 0
SMALL
GASTEIGER

@<TRIPOS>ATOM
      1 C         141.5815  144.3944  160.7176 C.3     1  UNL1        0.0730
      2 N         140.6428  144.3902  161.8876 N.3     1  UNL1       -0.2724
      3 C         139.9814  145.5935  162.4916 C.3     1  UNL1        0.0724
      4 C         139.1305  145.1291  163.6363 C.3     1  UNL1        0.0214
      5 C         138.3854  144.3804  164.7013 C.3     1  UNL1        0.0072
      6 C         139.2661  143.6387  163.7398 C.3     1  UNL1        0.0350
      7 C         140.2008  143.1821  162.6591 C.3     1  UNL1        0.0761
      8 C         139.0082  142.2756  164.3102 C.ar    1  UNL1       -0.0215
      9 C         139.4290  141.9584  165.7146 C.ar    1  UNL1       -0.0043
     10 C         139.1711  140.5953  166.2850 C.ar    1  UNL1        0.0035
     11 C         138.4923  139.5494  165.4510 C.ar    1  UNL1        0.0714
     12 C         138.0715  139.8667  164.0467 C.ar    1  UNL1        0.0035
     13 C         138.3295  141.2298  163.4762 C.ar    1  UNL1       -0.0043
     14 C         138.2344  138.1863  166.0214 C.3     1  UNL1        0.4186
     15 F         137.9765  136.8232  166.5919 F       1  UNL1       -0.1659
     16 F         137.9379  138.8013  167.3571 F       1  UNL1       -0.1659
     17 F         138.5309  137.5713  164.6859 F       1  UNL1       -0.1659
     18 C         142.0962  143.0986  160.1643 C.3     1  UNL1        0.0294
     19 C         143.5730  142.8768  160.0241 C.3     1  UNL1        0.0666
     20 S         144.2972  142.0053  161.0070 S.3     1  UNL1       -0.0756
     21 C         142.9118  140.8716  164.4509 C.ar    1  UNL1        0.1680
     22 N         141.9512  140.1981  163.5162 N.ar    1  UNL1       -0.1282
     23 N         142.3533  140.5408  162.1123 N.ar    1  UNL1       -0.1221
     24 C         143.5624  141.4261  162.1794 C.ar    1  UNL1        0.1932
     25 N         143.9075  141.6305  163.6247 N.ar    1  UNL1       -0.2884
     26 C         145.0481  142.4500  164.1514 C.3     1  UNL1        0.1340
     27 C         143.1476  138.2172  165.8290 C.3     1  UNL1        0.0522
     28 C         142.9998  139.4718  166.6379 C.ar    1  UNL1        0.0623
     29 N         142.9699  139.3991  168.1358 N.ar    1  UNL1       -0.2480
     30 C         142.8222  140.6537  168.9447 C.ar    1  UNL1        0.0984
     31 C         142.7043  141.9808  168.2558 C.ar    1  UNL1        0.0208
     32 C         142.7342  142.0534  166.7578 C.ar    1  UNL1        0.0058
     33 C         142.8819  140.7989  165.9489 C.ar    1  UNL1        0.0495
@<TRIPOS>BOND
     1    27    28    1
     2    28    29   ar
     3    29    30   ar
     4    30    31   ar
     5    31    32   ar
     6    32    33   ar
     7    33    21    1
     8    21    22   ar
     9    22    23   ar
    10    23    24   ar
    11    24    20    1
    12    20    19    1
    13    19    18    1
    14    18     1    1
    15     1     2    1
    16     2     3    1
    17     4     3    1
    18     4     5    1
    19     5     6    1
    20     6     8    1
    21     8     9   ar
    22     9    10   ar
    23    10    11   ar
    24    11    14    1
    25    14    15    1
    26    14    16    1
    27    14    17    1
    28    11    12   ar
    29    12    13   ar
    30     6     7    1
    31    24    25   ar
    32    25    26    1
    33    33    28   ar
    34    25    21   ar
    35     7     2    1
    36     6     4    1
    37    13     8   ar
@<TRIPOS>MOLECULE
*****
 33 37 0 0 0
SMALL
GASTEIGER

@<TRIPOS>ATOM
      1 C         144.9055  141.9299  162.1417 C.3     1  UNL1        0.0730
      2 N         143.9792  140.8098  161.7709 N.3     1  UNL1       -0.2724
      3 C         144.0327  140.0033  160.5072 C.3     1  UNL1        0.0724
      4 C         142.9235  138.9946  160.5538 C.3     1  UNL1        0.0214
      5 C         141.7518  138.1161  160.8789 C.3     1  UNL1        0.0072
      6 C         142.1845  139.1777  161.8463 C.3     1  UNL1        0.0350
      7 C         142.8370  140.2995  162.5985 C.3     1  UNL1        0.0761
      8 C         141.1327  138.8894  162.8762 C.ar    1  UNL1       -0.0215
      9 C         139.7514  139.4514  162.7152 C.ar    1  UNL1       -0.0043
     10 C         138.6996  139.1631  163.7451 C.ar    1  UNL1        0.0035
     11 C         139.0293  138.3127  164.9360 C.ar    1  UNL1        0.0714
     12 C         140.4106  137.7507  165.0970 C.ar    1  UNL1        0.0035
     13 C         141.4624  138.0390  164.0671 C.ar    1  UNL1       -0.0043
     14 C         137.9775  138.0244  165.9659 C.3     1  UNL1        0.4186
     15 F         136.9257  137.7361  166.9957 F       1  UNL1       -0.1659
     16 F         137.6089  139.4782  165.9965 F       1  UNL1       -0.1659
     17 F         138.3460  136.5707  165.9353 F       1  UNL1       -0.1659
     18 C         144.4422  143.3526  162.0356 C.3     1  UNL1        0.0294
     19 C         144.0287  144.1006  163.2683 C.3     1  UNL1        0.0666
     20 S         142.6777  143.8596  163.8739 S.3     1  UNL1       -0.0756
     21 C         141.6408  142.1488  167.2001 C.ar    1  UNL1        0.1680
     22 N         143.1357  142.1400  167.3234 N.ar    1  UNL1       -0.1282
     23 N         143.7061  142.7798  166.0924 N.ar    1  UNL1       -0.1221
     24 C         142.5637  143.1841  165.2083 C.ar    1  UNL1        0.1932
     25 N         141.2873  142.7940  165.8929 N.ar    1  UNL1       -0.2884
     26 C         139.9008  143.0111  165.3632 C.3     1  UNL1        0.1340
     27 C         140.9702  143.7484  169.6479 C.3     1  UNL1        0.0522
     28 C         140.3345  142.4071  169.4310 C.ar    1  UNL1        0.0623
     29 N         139.3636  141.8657  170.4380 N.ar    1  UNL1       -0.2480
     30 C         138.7279  140.5245  170.2211 C.ar    1  UNL1        0.0984
     31 C         139.0632  139.7247  168.9972 C.ar    1  UNL1        0.0208
     32 C         140.0341  140.2661  167.9903 C.ar    1  UNL1        0.0058
     33 C         140.6698  141.6074  168.2071 C.ar    1  UNL1        0.0495
@<TRIPOS>BOND
     1    27    28    1
     2    28    29   ar
     3    29    30   ar
     4    30    31   ar
     5    31    32   ar
     6    32    33   ar
     7    33    21    1
     8    21    22   ar
     9    22    23   ar
    10    23    24   ar
    11    24    20    1
    12    20    19    1
    13    19    18    1
    14    18     1    1
    15     1     2    1
    16     2     3    1
    17     4     3    1
    18     4     5    1
    19     5     6    1
    20     6     8    1
    21     8     9   ar
    22     9    10   ar
    23    10    11   ar
    24    11    14    1
    25    14    15    1
    26    14    16    1
    27    14    17    1
    28    11    12   ar
    29    12    13   ar
    30     6     7    1
    31    24    25   ar
    32    25    26    1
    33    33    28   ar
    34    25    21   ar
    35     7     2    1
    36     6     4    1
    37    13     8   ar
@<TRIPOS>MOLECULE
*****
 33 37 0 0 0
SMALL
GASTEIGER

@<TRIPOS>ATOM
      1 C         142.0737  143.9294  159.5859 C.3     1  UNL1        0.0730
      2 N         142.6236  142.5499  159.7975 N.3     1  UNL1       -0.2724
      3 C         143.1614  141.6421  158.7312 C.3     1  UNL1        0.0724
      4 C         143.6024  140.3672  159.3871 C.3     1  UNL1        0.0214
      5 C         143.9459  139.2324  160.3060 C.3     1  UNL1        0.0072
      6 C         143.3371  140.4871  160.8586 C.3     1  UNL1        0.0350
      7 C         142.7321  141.8360  161.1122 C.3     1  UNL1        0.0761
      8 C         143.3183  140.0355  162.2889 C.ar    1  UNL1       -0.0215
      9 C         144.4174  140.4512  163.2212 C.ar    1  UNL1       -0.0043
     10 C         144.3986  139.9996  164.6514 C.ar    1  UNL1        0.0035
     11 C         143.2807  139.1322  165.1494 C.ar    1  UNL1        0.0714
     12 C         142.1817  138.7165  164.2171 C.ar    1  UNL1        0.0035
     13 C         142.2004  139.1680  162.7869 C.ar    1  UNL1       -0.0043
     14 C         143.2620  138.6806  166.5797 C.3     1  UNL1        0.4186
     15 F         143.2432  138.2290  168.0100 F       1  UNL1       -0.1659
     16 F         141.9151  139.3153  166.7625 F       1  UNL1       -0.1659
     17 F         144.6087  138.0460  166.3970 F       1  UNL1       -0.1659
     18 C         140.6955  144.2699  160.0703 C.3     1  UNL1        0.0294
     19 C         140.5013  145.3803  161.0598 C.3     1  UNL1        0.0666
     20 S         139.9268  145.0864  162.4138 S.3     1  UNL1       -0.0756
     21 C         138.5169  141.6008  163.3775 C.ar    1  UNL1        0.1680
     22 N         137.3705  142.1712  162.5962 N.ar    1  UNL1       -0.1282
     23 N         137.7591  143.5464  162.1401 N.ar    1  UNL1       -0.1221
     24 C         139.1457  143.8258  162.6395 C.ar    1  UNL1        0.1932
     25 N         139.6140  142.6234  163.4043 N.ar    1  UNL1       -0.2884
     26 C         140.9456  142.4704  164.0776 C.3     1  UNL1        0.1340
     27 C         138.7077  139.1391  161.6735 C.3     1  UNL1        0.0522
     28 C         138.6543  139.0149  163.1674 C.ar    1  UNL1        0.0623
     29 N         138.6962  137.6598  163.8092 N.ar    1  UNL1       -0.2480
     30 C         138.6428  137.5356  165.3031 C.ar    1  UNL1        0.0984
     31 C         138.5474  138.7664  166.1551 C.ar    1  UNL1        0.0208
     32 C         138.5054  140.1214  165.5133 C.ar    1  UNL1        0.0058
     33 C         138.5589  140.2457  164.0194 C.ar    1  UNL1        0.0495
@<TRIPOS>BOND
     1    27    28    1
     2    28    29   ar
     3    29    30   ar
     4    30    31   ar
     5    31    32   ar
     6    32    33   ar
     7    33    21    1
     8    21    22   ar
     9    22    23   ar
    10    23    24   ar
    11    24    20    1
    12    20    19    1
    13    19    18    1
    14    18     1    1
    15     1     2    1
    16     2     3    1
    17     4     3    1
    18     4     5    1
    19     5     6    1
    20     6     8    1
    21     8     9   ar
    22     9    10   ar
    23    10    11   ar
    24    11    14    1
    25    14    15    1
    26    14    16    1
    27    14    17    1
    28    11    12   ar
    29    12    13   ar
    30     6     7    1
    31    24    25   ar
    32    25    26    1
    33    33    28   ar
    34    25    21   ar
    35     7     2    1
    36     6     4    1
    37    13     8   ar
