@<TRIPOS>MOLECULE
*****
 27 29 0 0 0
SMALL
GASTEIGER

@<TRIPOS>ATOM
      1 N         142.1960  137.7649  158.4901 N.3     1  UNL1       -0.2697
      2 C         142.9634  137.4943  159.7502 C.3     1  UNL1        0.0940
      3 C         142.3884  137.8895  161.0781 C.3     1  UNL1        0.1123
      4 N         141.0460  138.5554  161.1458 N.am    1  UNL1       -0.2611
      5 C         140.4710  138.9506  162.4736 C.2     1  UNL1        0.3078
      6 O         139.1286  139.6165  162.5414 O.2     1  UNL1       -0.2522
      7 N         141.2385  138.6800  163.7337 N.am    1  UNL1       -0.2681
      8 C         140.2786  138.8260  159.8857 C.3     1  UNL1        0.1123
      9 C         140.8536  138.4308  158.5578 C.3     1  UNL1        0.0940
     10 H         142.1195  138.2430  163.6892 H       1  UNL1        0.1564
     11 C         140.6634  139.0752  165.0616 C.ar    1  UNL1        0.0525
     12 C         141.4213  140.0077  165.9594 C.ar    1  UNL1        0.0156
     13 C         140.8463  140.4030  167.2872 C.ar    1  UNL1        0.0135
     14 C         139.5135  139.8658  167.7172 C.ar    1  UNL1        0.0683
     15 CL        138.9384  140.2610  169.0450 Cl      1  UNL1       -0.0814
     16 C         138.7556  138.9333  166.8193 C.ar    1  UNL1        0.0694
     17 CL        137.4227  138.3962  167.2493 Cl      1  UNL1       -0.0813
     18 C         139.3306  138.5381  165.4915 C.ar    1  UNL1        0.0270
     19 C         142.7710  137.3697  157.1623 C.3     1  UNL1        0.0735
     20 N         143.1574  133.4530  156.6516 N.3     1  UNL1       -0.2726
     21 C         142.1333  133.2039  155.5843 C.3     1  UNL1        0.0721
     22 C         141.3217  134.3434  155.0430 C.3     1  UNL1        0.0174
     23 C         141.5343  135.7320  155.5690 C.3     1  UNL1        0.0042
     24 C         142.5584  135.9810  156.6362 C.3     1  UNL1        0.0320
     25 C         143.3699  134.8416  157.1775 C.3     1  UNL1        0.0734
     26 C         144.8280  131.5001  156.2708 C.3     1  UNL1        0.0188
     27 C         143.9689  132.3135  157.1929 C.3     1  UNL1        0.0721
@<TRIPOS>BOND
     1    26    27    1
     2    27    20    1
     3    20    21    1
     4    21    22    1
     5    22    23    1
     6    23    24    1
     7    24    19    1
     8    19     1    1
     9     1     2    1
    10     2     3    1
    11     3     4    1
    12     4     5   am
    13     5     6    2
    14     5     7   am
    15     7    11    1
    16    11    12   ar
    17    12    13   ar
    18    13    14   ar
    19    14    15    1
    20    14    16   ar
    21    16    17    1
    22    16    18   ar
    23     4     8    1
    24     8     9    1
    25    24    25    1
    26    25    20    1
    27     9     1    1
    28    18    11   ar
    29     7    10    1
@<TRIPOS>MOLECULE
*****
 27 29 0 0 0
SMALL
GASTEIGER

@<TRIPOS>ATOM
      1 N         141.1621  144.8758  160.2099 N.3     1  UNL1       -0.2697
      2 C         141.8695  143.6896  160.7951 C.3     1  UNL1        0.0940
      3 C         141.5039  143.1988  162.1646 C.3     1  UNL1        0.1123
      4 N         140.4310  143.8942  162.9488 N.am    1  UNL1       -0.2611
      5 C         140.0654  143.4033  164.3183 C.2     1  UNL1        0.3078
      6 O         138.9924  144.0987  165.1026 O.2     1  UNL1       -0.2522
      7 N         140.7728  142.2171  164.9035 N.am    1  UNL1       -0.2681
      8 C         139.7235  145.0804  162.3637 C.3     1  UNL1        0.1123
      9 C         140.0891  145.5712  160.9942 C.3     1  UNL1        0.0940
     10 H         141.4771  141.7607  164.3887 H       1  UNL1        0.1564
     11 C         140.4072  141.7263  166.2730 C.ar    1  UNL1        0.0525
     12 C         139.6840  140.4220  166.4339 C.ar    1  UNL1        0.0156
     13 C         139.3184  139.9312  167.8034 C.ar    1  UNL1        0.0135
     14 C         139.6760  140.7446  169.0118 C.ar    1  UNL1        0.0683
     15 CL        139.3104  140.2538  170.3813 Cl      1  UNL1       -0.0814
     16 C         140.3992  142.0489  168.8509 C.ar    1  UNL1        0.0694
     17 CL        140.7568  142.8623  170.0594 Cl      1  UNL1       -0.0813
     18 C         140.7648  142.5397  167.4814 C.ar    1  UNL1        0.0270
     19 C         141.5277  145.3667  158.8405 C.3     1  UNL1        0.0735
     20 N         139.1601  146.4777  155.8555 N.3     1  UNL1       -0.2726
     21 C         138.5171  145.1696  155.5016 C.3     1  UNL1        0.0721
     22 C         138.8777  143.9271  156.2607 C.3     1  UNL1        0.0174
     23 C         139.8812  143.9927  157.3736 C.3     1  UNL1        0.0042
     24 C         140.5241  145.3009  157.7275 C.3     1  UNL1        0.0320
     25 C         140.1636  146.5434  156.9684 C.3     1  UNL1        0.0734
     26 C         139.7952  148.3457  154.1652 C.3     1  UNL1        0.0188
     27 C         138.7995  147.7202  155.0964 C.3     1  UNL1        0.0721
@<TRIPOS>BOND
     1    26    27    1
     2    27    20    1
     3    20    21    1
     4    21    22    1
     5    22    23    1
     6    23    24    1
     7    24    19    1
     8    19     1    1
     9     1     2    1
    10     2     3    1
    11     3     4    1
    12     4     5   am
    13     5     6    2
    14     5     7   am
    15     7    11    1
    16    11    12   ar
    17    12    13   ar
    18    13    14   ar
    19    14    15    1
    20    14    16   ar
    21    16    17    1
    22    16    18   ar
    23     4     8    1
    24     8     9    1
    25    24    25    1
    26    25    20    1
    27     9     1    1
    28    18    11   ar
    29     7    10    1
@<TRIPOS>MOLECULE
*****
 27 29 0 0 0
SMALL
GASTEIGER

@<TRIPOS>ATOM
      1 N         141.7925  136.6868  156.3373 N.3     1  UNL1       -0.2697
      2 C         140.3555  137.0877  156.4932 C.3     1  UNL1        0.0940
      3 C         139.9396  137.9559  157.6436 C.3     1  UNL1        0.1123
      4 N         140.9608  138.4231  158.6381 N.am    1  UNL1       -0.2611
      5 C         140.5449  139.2912  159.7884 C.2     1  UNL1        0.3078
      6 O         141.5660  139.7584  160.7830 O.2     1  UNL1       -0.2522
      7 N         139.1079  139.6921  159.9443 N.am    1  UNL1       -0.2681
      8 C         142.3977  138.0221  158.4822 C.3     1  UNL1        0.1123
      9 C         142.8136  137.1540  157.3318 C.3     1  UNL1        0.0940
     10 H         138.4377  139.3855  159.2916 H       1  UNL1        0.1564
     11 C         138.6921  140.5603  161.0948 C.ar    1  UNL1        0.0525
     12 C         138.3999  142.0143  160.8698 C.ar    1  UNL1        0.0156
     13 C         137.9841  142.8824  162.0202 C.ar    1  UNL1        0.0135
     14 C         137.8604  142.2966  163.3955 C.ar    1  UNL1        0.0683
     15 CL        137.4446  143.1648  164.5459 Cl      1  UNL1       -0.0814
     16 C         138.1526  140.8427  163.6204 C.ar    1  UNL1        0.0694
     17 CL        138.0289  140.2569  164.9958 Cl      1  UNL1       -0.0813
     18 C         138.5684  139.9745  162.4701 C.ar    1  UNL1        0.0270
     19 C         142.2083  135.8187  155.1869 C.3     1  UNL1        0.0735
     20 N         143.7660  132.2914  156.1262 N.3     1  UNL1       -0.2726
     21 C         142.6356  131.3759  155.7603 C.3     1  UNL1        0.0721
     22 C         141.3628  131.9412  155.2033 C.3     1  UNL1        0.0174
     23 C         141.2203  133.4221  155.0121 C.3     1  UNL1        0.0042
     24 C         142.3507  134.3377  155.3780 C.3     1  UNL1        0.0320
     25 C         143.6236  133.7723  155.9351 C.3     1  UNL1        0.0734
     26 C         145.5471  132.1928  158.0150 C.3     1  UNL1        0.0188
     27 C         145.0388  131.7261  156.6832 C.3     1  UNL1        0.0721
@<TRIPOS>BOND
     1    26    27    1
     2    27    20    1
     3    20    21    1
     4    21    22    1
     5    22    23    1
     6    23    24    1
     7    24    19    1
     8    19     1    1
     9     1     2    1
    10     2     3    1
    11     3     4    1
    12     4     5   am
    13     5     6    2
    14     5     7   am
    15     7    11    1
    16    11    12   ar
    17    12    13   ar
    18    13    14   ar
    19    14    15    1
    20    14    16   ar
    21    16    17    1
    22    16    18   ar
    23     4     8    1
    24     8     9    1
    25    24    25    1
    26    25    20    1
    27     9     1    1
    28    18    11   ar
    29     7    10    1
@<TRIPOS>MOLECULE
*****
 27 29 0 0 0
SMALL
GASTEIGER

@<TRIPOS>ATOM
      1 N         141.0159  145.0085  160.0669 N.3     1  UNL1       -0.2697
      2 C         141.7162  143.7985  160.6106 C.3     1  UNL1        0.0940
      3 C         141.3895  143.2978  161.9864 C.3     1  UNL1        0.1123
      4 N         140.3627  144.0071  162.8184 N.am    1  UNL1       -0.2611
      5 C         140.0360  143.5064  164.1941 C.2     1  UNL1        0.3078
      6 O         139.0091  144.2157  165.0262 O.2     1  UNL1       -0.2522
      7 N         140.7363  142.2964  164.7378 N.am    1  UNL1       -0.2681
      8 C         139.6624  145.2171  162.2748 C.3     1  UNL1        0.1123
      9 C         139.9890  145.7178  160.8991 C.3     1  UNL1        0.0940
     10 H         141.4103  141.8309  164.1916 H       1  UNL1        0.1564
     11 C         140.4096  141.7957  166.1135 C.ar    1  UNL1        0.0525
     12 C         139.7208  140.4746  166.2869 C.ar    1  UNL1        0.0156
     13 C         139.3941  139.9739  167.6626 C.ar    1  UNL1        0.0135
     14 C         139.7563  140.7944  168.8649 C.ar    1  UNL1        0.0683
     15 CL        139.4296  140.2937  170.2407 Cl      1  UNL1       -0.0814
     16 C         140.4451  142.1155  168.6915 C.ar    1  UNL1        0.0694
     17 CL        140.8072  142.9360  169.8940 Cl      1  UNL1       -0.0813
     18 C         140.7718  142.6162  167.3159 C.ar    1  UNL1        0.0270
     19 C         141.3426  145.5091  158.6912 C.3     1  UNL1        0.0735
     20 N         138.6741  143.9574  156.1970 N.3     1  UNL1       -0.2726
     21 C         138.3021  145.1668  155.3915 C.3     1  UNL1        0.0721
     22 C         138.9435  146.4904  155.6860 C.3     1  UNL1        0.0174
     23 C         139.9570  146.6045  156.7859 C.3     1  UNL1        0.0042
     24 C         140.3290  145.3951  157.5913 C.3     1  UNL1        0.0320
     25 C         139.6876  144.0715  157.2968 C.3     1  UNL1        0.0734
     26 C         137.2921  141.9025  156.9826 C.3     1  UNL1        0.0188
     27 C         138.0326  142.6338  155.9025 C.3     1  UNL1        0.0721
@<TRIPOS>BOND
     1    26    27    1
     2    27    20    1
     3    20    21    1
     4    21    22    1
     5    22    23    1
     6    23    24    1
     7    24    19    1
     8    19     1    1
     9     1     2    1
    10     2     3    1
    11     3     4    1
    12     4     5   am
    13     5     6    2
    14     5     7   am
    15     7    11    1
    16    11    12   ar
    17    12    13   ar
    18    13    14   ar
    19    14    15    1
    20    14    16   ar
    21    16    17    1
    22    16    18   ar
    23     4     8    1
    24     8     9    1
    25    24    25    1
    26    25    20    1
    27     9     1    1
    28    18    11   ar
    29     7    10    1
@<TRIPOS>MOLECULE
*****
 27 29 0 0 0
SMALL
GASTEIGER

@<TRIPOS>ATOM
      1 N         142.2173  138.2023  158.8661 N.3     1  UNL1       -0.2697
      2 C         140.9802  138.9451  159.2755 C.3     1  UNL1        0.0940
      3 C         140.6486  139.1058  160.7296 C.3     1  UNL1        0.1123
      4 N         141.5541  138.5236  161.7741 N.am    1  UNL1       -0.2611
      5 C         141.2224  138.6843  163.2281 C.2     1  UNL1        0.3078
      6 O         142.1280  138.1022  164.2728 O.2     1  UNL1       -0.2522
      7 N         139.9853  139.4272  163.6376 N.am    1  UNL1       -0.2681
      8 C         142.7912  137.7808  161.3647 C.3     1  UNL1        0.1123
      9 C         143.1229  137.6201  159.9107 C.3     1  UNL1        0.0940
     10 H         139.3909  139.8093  162.9520 H       1  UNL1        0.1564
     11 C         139.6536  139.5879  165.0917 C.ar    1  UNL1        0.0525
     12 C         138.5573  138.7688  165.7058 C.ar    1  UNL1        0.0156
     13 C         138.2257  138.9294  167.1598 C.ar    1  UNL1        0.0135
     14 C         138.9904  139.9091  167.9996 C.ar    1  UNL1        0.0683
     15 CL        138.6587  140.0698  169.4537 Cl      1  UNL1       -0.0814
     16 C         140.0867  140.7282  167.3855 C.ar    1  UNL1        0.0694
     17 CL        140.8514  141.7079  168.2254 Cl      1  UNL1       -0.0813
     18 C         140.4183  140.5675  165.9315 C.ar    1  UNL1        0.0270
     19 C         142.5490  138.0416  157.4121 C.3     1  UNL1        0.0735
     20 N         143.1035  134.3070  156.1890 N.3     1  UNL1       -0.2726
     21 C         141.8647  134.0896  155.3716 C.3     1  UNL1        0.0721
     22 C         140.8540  135.1894  155.2344 C.3     1  UNL1        0.0174
     23 C         141.0821  136.5067  155.9145 C.3     1  UNL1        0.0042
     24 C         142.3209  136.7242  156.7319 C.3     1  UNL1        0.0320
     25 C         143.3316  135.6243  156.8691 C.3     1  UNL1        0.0734
     26 C         144.5449  132.7501  157.6883 C.3     1  UNL1        0.0188
     27 C         144.1142  133.2072  156.3262 C.3     1  UNL1        0.0721
@<TRIPOS>BOND
     1    26    27    1
     2    27    20    1
     3    20    21    1
     4    21    22    1
     5    22    23    1
     6    23    24    1
     7    24    19    1
     8    19     1    1
     9     1     2    1
    10     2     3    1
    11     3     4    1
    12     4     5   am
    13     5     6    2
    14     5     7   am
    15     7    11    1
    16    11    12   ar
    17    12    13   ar
    18    13    14   ar
    19    14    15    1
    20    14    16   ar
    21    16    17    1
    22    16    18   ar
    23     4     8    1
    24     8     9    1
    25    24    25    1
    26    25    20    1
    27     9     1    1
    28    18    11   ar
    29     7    10    1
@<TRIPOS>MOLECULE
*****
 27 29 0 0 0
SMALL
GASTEIGER

@<TRIPOS>ATOM
      1 N         140.5556  145.3612  155.9847 N.3     1  UNL1       -0.2697
      2 C         141.5630  146.0572  156.8510 C.3     1  UNL1        0.0940
      3 C         141.8380  145.5514  158.2361 C.3     1  UNL1        0.1123
      4 N         141.1056  144.3496  158.7549 N.am    1  UNL1       -0.2611
      5 C         141.3807  143.8439  160.1400 C.2     1  UNL1        0.3078
      6 O         140.6482  142.6420  160.6589 O.2     1  UNL1       -0.2522
      7 N         142.3881  144.5400  161.0063 N.am    1  UNL1       -0.2681
      8 C         140.0982  143.6536  157.8886 C.3     1  UNL1        0.1123
      9 C         139.8231  144.1593  156.5035 C.3     1  UNL1        0.0940
     10 H         142.8689  145.3288  160.6658 H       1  UNL1        0.1564
     11 C         142.6632  144.0342  162.3915 C.ar    1  UNL1        0.0525
     12 C         144.0597  143.6575  162.7888 C.ar    1  UNL1        0.0156
     13 C         144.3347  143.1517  164.1739 C.ar    1  UNL1        0.0135
     14 C         143.2133  143.0226  165.1616 C.ar    1  UNL1        0.0683
     15 CL        143.4883  142.5168  166.5468 Cl      1  UNL1       -0.0814
     16 C         141.8168  143.3993  164.7643 C.ar    1  UNL1        0.0694
     17 CL        140.6953  143.2702  165.7521 Cl      1  UNL1       -0.0813
     18 C         141.5417  143.9051  163.3792 C.ar    1  UNL1        0.0270
     19 C         140.2805  145.8669  154.5996 C.3     1  UNL1        0.0735
     20 N         139.0035  149.5852  155.1411 N.3     1  UNL1       -0.2726
     21 C         139.5429  150.2522  153.9107 C.3     1  UNL1        0.0721
     22 C         140.3283  149.4575  152.9098 C.3     1  UNL1        0.0174
     23 C         140.5741  147.9957  153.1394 C.3     1  UNL1        0.0042
     24 C         140.0347  147.3287  154.3699 C.3     1  UNL1        0.0320
     25 C         139.2494  148.1235  155.3707 C.3     1  UNL1        0.0734
     26 C         138.1766  149.9467  157.5774 C.3     1  UNL1        0.0188
     27 C         138.2182  150.3800  156.1419 C.3     1  UNL1        0.0721
@<TRIPOS>BOND
     1    26    27    1
     2    27    20    1
     3    20    21    1
     4    21    22    1
     5    22    23    1
     6    23    24    1
     7    24    19    1
     8    19     1    1
     9     1     2    1
    10     2     3    1
    11     3     4    1
    12     4     5   am
    13     5     6    2
    14     5     7   am
    15     7    11    1
    16    11    12   ar
    17    12    13   ar
    18    13    14   ar
    19    14    15    1
    20    14    16   ar
    21    16    17    1
    22    16    18   ar
    23     4     8    1
    24     8     9    1
    25    24    25    1
    26    25    20    1
    27     9     1    1
    28    18    11   ar
    29     7    10    1
@<TRIPOS>MOLECULE
*****
 27 29 0 0 0
SMALL
GASTEIGER

@<TRIPOS>ATOM
      1 N         142.6792  141.9942  159.1810 N.3     1  UNL1       -0.2697
      2 C         141.7767  140.8259  159.4466 C.3     1  UNL1        0.0940
      3 C         141.9771  139.5390  158.7024 C.3     1  UNL1        0.1123
      4 N         143.0798  139.4205  157.6925 N.am    1  UNL1       -0.2611
      5 C         143.2801  138.1336  156.9483 C.2     1  UNL1        0.3078
      6 O         144.3829  138.0151  155.9384 O.2     1  UNL1       -0.2522
      7 N         142.3776  136.9653  157.2140 N.am    1  UNL1       -0.2681
      8 C         143.9823  140.5888  157.4268 C.3     1  UNL1        0.1123
      9 C         143.7820  141.8756  158.1710 C.3     1  UNL1        0.0940
     10 H         141.6538  137.0431  157.8768 H       1  UNL1        0.1564
     11 C         142.5779  135.6784  156.4697 C.ar    1  UNL1        0.0525
     12 C         141.7811  135.3969  155.2304 C.ar    1  UNL1        0.0156
     13 C         141.9813  134.1101  154.4861 C.ar    1  UNL1        0.0135
     14 C         142.9784  133.1048  154.9812 C.ar    1  UNL1        0.0683
     15 CL        143.1787  131.8179  154.2369 Cl      1  UNL1       -0.0814
     16 C         143.7753  133.3863  156.2204 C.ar    1  UNL1        0.0694
     17 CL        144.7724  132.3809  156.7154 Cl      1  UNL1       -0.0813
     18 C         143.5750  134.6731  156.9647 C.ar    1  UNL1        0.0270
     19 C         142.4790  143.2811  159.9252 C.3     1  UNL1        0.0735
     20 N         144.5711  142.6248  163.2331 N.3     1  UNL1       -0.2726
     21 C         144.0634  143.7282  164.1132 C.3     1  UNL1        0.0721
     22 C         143.0276  144.6826  163.5973 C.3     1  UNL1        0.0174
     23 C         142.4994  144.5336  162.2013 C.3     1  UNL1        0.0042
     24 C         143.0071  143.4302  161.3212 C.3     1  UNL1        0.0320
     25 C         144.0430  142.4758  161.8371 C.3     1  UNL1        0.0734
     26 C         145.2243  140.2607  164.0901 C.3     1  UNL1        0.0188
     27 C         145.6070  141.6704  163.7490 C.3     1  UNL1        0.0721
@<TRIPOS>BOND
     1    26    27    1
     2    27    20    1
     3    20    21    1
     4    21    22    1
     5    22    23    1
     6    23    24    1
     7    24    19    1
     8    19     1    1
     9     1     2    1
    10     2     3    1
    11     3     4    1
    12     4     5   am
    13     5     6    2
    14     5     7   am
    15     7    11    1
    16    11    12   ar
    17    12    13   ar
    18    13    14   ar
    19    14    15    1
    20    14    16   ar
    21    16    17    1
    22    16    18   ar
    23     4     8    1
    24     8     9    1
    25    24    25    1
    26    25    20    1
    27     9     1    1
    28    18    11   ar
    29     7    10    1
@<TRIPOS>MOLECULE
*****
 27 29 0 0 0
SMALL
GASTEIGER

@<TRIPOS>ATOM
      1 N         140.4437  141.1504  157.2885 N.3     1  UNL1       -0.2697
      2 C         139.7486  139.8325  157.4620 C.3     1  UNL1        0.0940
      3 C         140.4909  138.5540  157.2081 C.3     1  UNL1        0.1123
      4 N         141.9282  138.5934  156.7807 N.am    1  UNL1       -0.2611
      5 C         142.6704  137.3149  156.5268 C.2     1  UNL1        0.3078
      6 O         144.1077  137.3542  156.0994 O.2     1  UNL1       -0.2522
      7 N         141.9753  135.9970  156.7003 N.am    1  UNL1       -0.2681
      8 C         142.6232  139.9112  156.6071 C.3     1  UNL1        0.1123
      9 C         141.8810  141.1897  156.8610 C.3     1  UNL1        0.0940
     10 H         141.0320  135.9711  156.9808 H       1  UNL1        0.1564
     11 C         142.7176  134.7184  156.4464 C.ar    1  UNL1        0.0525
     12 C         142.4789  133.9515  155.1796 C.ar    1  UNL1        0.0156
     13 C         143.2211  132.6730  154.9257 C.ar    1  UNL1        0.0135
     14 C         144.2021  132.1614  155.9385 C.ar    1  UNL1        0.0683
     15 CL        144.9444  130.8829  155.6846 Cl      1  UNL1       -0.0814
     16 C         144.4408  132.9284  157.2053 C.ar    1  UNL1        0.0694
     17 CL        145.4219  132.4168  158.2182 Cl      1  UNL1       -0.0813
     18 C         143.6986  134.2069  157.4593 C.ar    1  UNL1        0.0270
     19 C         139.7015  142.4289  157.5423 C.3     1  UNL1        0.0735
     20 N         138.9086  143.4738  161.2880 N.3     1  UNL1       -0.2726
     21 C         140.0134  144.4542  161.5487 C.3     1  UNL1        0.0721
     22 C         141.0143  144.7596  160.4740 C.3     1  UNL1        0.0174
     23 C         140.9104  144.0845  159.1386 C.3     1  UNL1        0.0042
     24 C         139.8055  143.1041  158.8778 C.3     1  UNL1        0.0320
     25 C         138.8046  142.7987  159.9525 C.3     1  UNL1        0.0734
     26 C         137.8087  144.0544  163.5690 C.3     1  UNL1        0.0188
     27 C         137.9077  143.1685  162.3627 C.3     1  UNL1        0.0721
@<TRIPOS>BOND
     1    26    27    1
     2    27    20    1
     3    20    21    1
     4    21    22    1
     5    22    23    1
     6    23    24    1
     7    24    19    1
     8    19     1    1
     9     1     2    1
    10     2     3    1
    11     3     4    1
    12     4     5   am
    13     5     6    2
    14     5     7   am
    15     7    11    1
    16    11    12   ar
    17    12    13   ar
    18    13    14   ar
    19    14    15    1
    20    14    16   ar
    21    16    17    1
    22    16    18   ar
    23     4     8    1
    24     8     9    1
    25    24    25    1
    26    25    20    1
    27     9     1    1
    28    18    11   ar
    29     7    10    1
@<TRIPOS>MOLECULE
*****
 27 29 0 0 0
SMALL
GASTEIGER

@<TRIPOS>ATOM
      1 N         143.3914  142.8597  159.8614 N.3     1  UNL1       -0.2697
      2 C         141.9634  142.9112  160.3179 C.3     1  UNL1        0.0940
      3 C         141.6198  142.5938  161.7432 C.3     1  UNL1        0.1123
      4 N         142.7040  142.2249  162.7118 N.am    1  UNL1       -0.2611
      5 C         142.3603  141.9075  164.1370 C.2     1  UNL1        0.3078
      6 O         143.4445  141.5386  165.1057 O.2     1  UNL1       -0.2522
      7 N         140.9323  141.9591  164.5935 N.am    1  UNL1       -0.2681
      8 C         144.1319  142.1734  162.2553 C.3     1  UNL1        0.1123
      9 C         144.4756  142.4907  160.8302 C.3     1  UNL1        0.0940
     10 H         140.2207  142.2012  163.9577 H       1  UNL1        0.1564
     11 C         140.5887  141.6417  166.0187 C.ar    1  UNL1        0.0525
     12 C         140.1293  140.2629  166.3902 C.ar    1  UNL1        0.0156
     13 C         139.7857  139.9455  167.8154 C.ar    1  UNL1        0.0135
     14 C         139.9013  141.0068  168.8690 C.ar    1  UNL1        0.0683
     15 CL        139.5577  140.6894  170.2942 Cl      1  UNL1       -0.0814
     16 C         140.3607  142.3856  168.4975 C.ar    1  UNL1        0.0694
     17 CL        140.4763  143.4470  169.5512 Cl      1  UNL1       -0.0813
     18 C         140.7043  142.7030  167.0723 C.ar    1  UNL1        0.0270
     19 C         143.7351  143.1770  158.4363 C.3     1  UNL1        0.0735
     20 N         146.0387  141.1798  155.8957 N.3     1  UNL1       -0.2726
     21 C         145.2331  139.9287  155.7060 C.3     1  UNL1        0.0721
     22 C         143.9282  139.7605  156.4264 C.3     1  UNL1        0.0174
     23 C         143.4289  140.8432  157.3365 C.3     1  UNL1        0.0042
     24 C         144.2344  142.0942  157.5262 C.3     1  UNL1        0.0320
     25 C         145.5393  142.2625  156.8058 C.3     1  UNL1        0.0734
     26 C         148.4849  142.0534  155.8459 C.3     1  UNL1        0.0188
     27 C         147.3436  141.3480  155.1754 C.3     1  UNL1        0.0721
@<TRIPOS>BOND
     1    26    27    1
     2    27    20    1
     3    20    21    1
     4    21    22    1
     5    22    23    1
     6    23    24    1
     7    24    19    1
     8    19     1    1
     9     1     2    1
    10     2     3    1
    11     3     4    1
    12     4     5   am
    13     5     6    2
    14     5     7   am
    15     7    11    1
    16    11    12   ar
    17    12    13   ar
    18    13    14   ar
    19    14    15    1
    20    14    16   ar
    21    16    17    1
    22    16    18   ar
    23     4     8    1
    24     8     9    1
    25    24    25    1
    26    25    20    1
    27     9     1    1
    28    18    11   ar
    29     7    10    1
