@<TRIPOS>MOLECULE
*****
 32 35 0 0 0
SMALL
GASTEIGER

@<TRIPOS>ATOM
      1 N         140.8830  139.8575  164.2648 N.am    1  UNL1       -0.2806
      2 C         141.7374  138.7060  163.8242 C.2     1  UNL1        0.2495
      3 O         142.2071  137.6939  164.8267 O.2     1  UNL1       -0.2698
      4 H         140.5747  140.5217  163.6068 H       1  UNL1        0.1552
      5 C         138.3854  138.5456  165.2851 C.3     1  UNL1        0.0323
      6 C         139.2496  139.3409  166.2181 C.ar    1  UNL1       -0.0087
      7 C         138.8650  139.4804  167.6612 C.ar    1  UNL1       -0.0072
      8 C         139.7293  140.2757  168.5942 C.ar    1  UNL1       -0.0192
      9 C         139.3446  140.4152  170.0374 C.3     1  UNL1        0.0311
     10 C         140.9780  140.9317  168.0841 C.ar    1  UNL1        0.0312
     11 C         141.3626  140.7922  166.6410 C.ar    1  UNL1        0.0170
     12 C         140.4984  139.9969  165.7080 C.ar    1  UNL1        0.0466
     13 C         141.8423  141.7270  169.0172 C.ar    1  UNL1        0.1403
     14 N         143.2725  141.4331  169.3604 N.ar    1  UNL1       -0.2254
     15 C         143.7422  142.4804  170.3262 C.ar    1  UNL1        0.1189
     16 C         142.6022  143.4216  170.5797 C.ar    1  UNL1        0.0945
     17 N         141.4280  142.9560  169.7707 N.ar    1  UNL1       -0.3361
     18 H         140.5411  143.3823  169.7398 H       1  UNL1        0.1674
     19 C         142.1220  138.5666  162.3810 C.ar    1  UNL1        0.0539
     20 C         143.5644  138.6498  161.9779 C.ar    1  UNL1        0.0076
     21 C         143.9491  138.5104  160.5348 C.ar    1  UNL1        0.0371
     22 C         142.8913  138.2878  159.4948 C.ar    1  UNL1        0.1391
     23 C         141.4489  138.2046  159.8980 C.ar    1  UNL1        0.0371
     24 C         141.0643  138.3440  161.3411 C.ar    1  UNL1        0.0076
     25 O         143.2760  138.1484  158.0517 O.3     1  UNL1       -0.4690
     26 C         142.2844  137.6175  157.0592 C.3     1  UNL1        0.2508
     27 C         142.2960  136.1631  156.6921 C.ar    1  UNL1        0.1026
     28 C         141.4289  135.6649  155.5741 C.ar    1  UNL1        0.0185
     29 C         141.4404  134.2106  155.2070 C.ar    1  UNL1        0.0029
     30 C         142.3191  133.2544  155.9579 C.ar    1  UNL1        0.0207
     31 C         143.1862  133.7527  157.0759 C.ar    1  UNL1        0.0986
     32 N         143.1746  135.2071  157.4430 N.ar    1  UNL1       -0.2445
@<TRIPOS>BOND
     1     5     6    1
     2     6     7   ar
     3     7     8   ar
     4     8     9    1
     5     8    10   ar
     6    10    13    1
     7    13    14   ar
     8    14    15   ar
     9    15    16   ar
    10    16    17   ar
    11    10    11   ar
    12    11    12   ar
    13    12     1    1
    14     1     2   am
    15     2     3    2
    16     2    19    1
    17    19    20   ar
    18    20    21   ar
    19    21    22   ar
    20    22    25    1
    21    25    26    1
    22    26    27    1
    23    27    28   ar
    24    28    29   ar
    25    29    30   ar
    26    30    31   ar
    27    31    32   ar
    28    22    23   ar
    29    23    24   ar
    30    12     6   ar
    31    24    19   ar
    32    17    13   ar
    33    32    27   ar
    34    17    18    1
    35     1     4    1
@<TRIPOS>MOLECULE
*****
 32 35 0 0 0
SMALL
GASTEIGER

@<TRIPOS>ATOM
      1 N         143.4928  138.3603  156.8739 N.am    1  UNL1       -0.2806
      2 C         142.4803  138.8556  157.8636 C.2     1  UNL1        0.2495
      3 O         141.1741  138.1357  158.0244 O.2     1  UNL1       -0.2698
      4 H         144.3500  138.8328  156.7684 H       1  UNL1        0.1552
      5 C         142.2398  138.6595  154.1646 C.3     1  UNL1        0.0323
      6 C         142.5727  137.2947  154.6903 C.ar    1  UNL1       -0.0087
      7 C         142.2792  136.0795  153.8614 C.ar    1  UNL1       -0.0072
      8 C         142.6121  134.7147  154.3872 C.ar    1  UNL1       -0.0192
      9 C         142.3185  133.4995  153.5582 C.3     1  UNL1        0.0311
     10 C         143.2386  134.5651  155.7419 C.ar    1  UNL1        0.0312
     11 C         143.5321  135.7803  156.5707 C.ar    1  UNL1        0.0170
     12 C         143.1992  137.1451  156.0450 C.ar    1  UNL1        0.0466
     13 C         143.5715  133.2003  156.2676 C.ar    1  UNL1        0.1403
     14 N         142.6115  132.2463  156.9145 N.ar    1  UNL1       -0.2254
     15 C         143.3696  131.0062  157.2855 C.ar    1  UNL1        0.1189
     16 C         144.7980  131.1938  156.8679 C.ar    1  UNL1        0.0945
     17 N         144.9228  132.5498  156.2388 N.ar    1  UNL1       -0.3361
     18 H         145.7469  132.9436  155.8715 H       1  UNL1        0.1674
     19 C         142.7738  140.0708  158.6926 C.ar    1  UNL1        0.0539
     20 C         144.0093  140.8791  158.4273 C.ar    1  UNL1        0.0076
     21 C         144.3029  142.0942  159.2562 C.ar    1  UNL1        0.0371
     22 C         143.3610  142.5012  160.3503 C.ar    1  UNL1        0.1391
     23 C         142.1255  141.6930  160.6156 C.ar    1  UNL1        0.0371
     24 C         141.8319  140.4778  159.7867 C.ar    1  UNL1        0.0076
     25 O         143.6546  143.7164  161.1793 O.3     1  UNL1       -0.4690
     26 C         144.4038  143.5797  162.4716 C.3     1  UNL1        0.2508
     27 C         144.2506  142.3384  163.2996 C.ar    1  UNL1        0.1026
     28 C         145.2460  141.2236  163.1714 C.ar    1  UNL1        0.0185
     29 C         145.0928  139.9823  163.9994 C.ar    1  UNL1        0.0029
     30 C         143.9441  139.8557  164.9557 C.ar    1  UNL1        0.0207
     31 C         142.9486  140.9704  165.0839 C.ar    1  UNL1        0.0986
     32 N         143.1019  142.2118  164.2559 N.ar    1  UNL1       -0.2445
@<TRIPOS>BOND
     1     5     6    1
     2     6     7   ar
     3     7     8   ar
     4     8     9    1
     5     8    10   ar
     6    10    13    1
     7    13    14   ar
     8    14    15   ar
     9    15    16   ar
    10    16    17   ar
    11    10    11   ar
    12    11    12   ar
    13    12     1    1
    14     1     2   am
    15     2     3    2
    16     2    19    1
    17    19    20   ar
    18    20    21   ar
    19    21    22   ar
    20    22    25    1
    21    25    26    1
    22    26    27    1
    23    27    28   ar
    24    28    29   ar
    25    29    30   ar
    26    30    31   ar
    27    31    32   ar
    28    22    23   ar
    29    23    24   ar
    30    12     6   ar
    31    24    19   ar
    32    17    13   ar
    33    32    27   ar
    34    17    18    1
    35     1     4    1
@<TRIPOS>MOLECULE
*****
 32 35 0 0 0
SMALL
GASTEIGER

@<TRIPOS>ATOM
      1 N         140.2008  142.1407  162.8618 N.am    1  UNL1       -0.2806
      2 C         139.4021  143.3160  162.3814 C.2     1  UNL1        0.2495
      3 O         138.3581  143.9264  163.2688 O.2     1  UNL1       -0.2698
      4 H         140.8860  141.7401  162.2794 H       1  UNL1        0.1552
      5 C         138.1620  139.9739  163.2467 C.3     1  UNL1        0.0323
      6 C         138.9362  140.4926  164.4221 C.ar    1  UNL1       -0.0087
      7 C         138.6910  139.9279  165.7899 C.ar    1  UNL1       -0.0072
      8 C         139.4653  140.4465  166.9653 C.ar    1  UNL1       -0.0192
      9 C         139.2200  139.8817  168.3332 C.3     1  UNL1        0.0311
     10 C         140.4847  141.5299  166.7729 C.ar    1  UNL1        0.0312
     11 C         140.7298  142.0946  165.4051 C.ar    1  UNL1        0.0170
     12 C         139.9556  141.5760  164.2297 C.ar    1  UNL1        0.0466
     13 C         141.2589  142.0485  167.9483 C.ar    1  UNL1        0.1403
     14 N         142.6694  141.6839  168.3053 N.ar    1  UNL1       -0.2254
     15 C         143.0408  142.4329  169.5507 C.ar    1  UNL1        0.1189
     16 C         141.8598  143.2605  169.9635 C.ar    1  UNL1        0.0945
     17 N         140.7586  143.0229  168.9731 N.ar    1  UNL1       -0.3361
     18 H         139.8644  143.4343  168.9923 H       1  UNL1        0.1674
     19 C         139.6473  143.8807  161.0136 C.ar    1  UNL1        0.0539
     20 C         139.3481  143.0560  159.7969 C.ar    1  UNL1        0.0076
     21 C         139.5932  143.6207  158.4291 C.ar    1  UNL1        0.0371
     22 C         140.1377  145.0102  158.2779 C.ar    1  UNL1        0.1391
     23 C         140.4370  145.8349  159.4946 C.ar    1  UNL1        0.0371
     24 C         140.1918  145.2702  160.8624 C.ar    1  UNL1        0.0076
     25 O         140.3829  145.5750  156.9101 O.3     1  UNL1       -0.4690
     26 C         139.2398  146.1255  156.1100 C.3     1  UNL1        0.2508
     27 C         139.2302  147.5719  155.7129 C.ar    1  UNL1        0.1026
     28 C         139.9659  148.0172  154.4840 C.ar    1  UNL1        0.0185
     29 C         139.9563  149.4636  154.0869 C.ar    1  UNL1        0.0029
     30 C         139.2109  150.4649  154.9188 C.ar    1  UNL1        0.0207
     31 C         138.4752  150.0196  156.1478 C.ar    1  UNL1        0.0986
     32 N         138.4848  148.5731  156.5448 N.ar    1  UNL1       -0.2445
@<TRIPOS>BOND
     1     5     6    1
     2     6     7   ar
     3     7     8   ar
     4     8     9    1
     5     8    10   ar
     6    10    13    1
     7    13    14   ar
     8    14    15   ar
     9    15    16   ar
    10    16    17   ar
    11    10    11   ar
    12    11    12   ar
    13    12     1    1
    14     1     2   am
    15     2     3    2
    16     2    19    1
    17    19    20   ar
    18    20    21   ar
    19    21    22   ar
    20    22    25    1
    21    25    26    1
    22    26    27    1
    23    27    28   ar
    24    28    29   ar
    25    29    30   ar
    26    30    31   ar
    27    31    32   ar
    28    22    23   ar
    29    23    24   ar
    30    12     6   ar
    31    24    19   ar
    32    17    13   ar
    33    32    27   ar
    34    17    18    1
    35     1     4    1
@<TRIPOS>MOLECULE
*****
 32 35 0 0 0
SMALL
GASTEIGER

@<TRIPOS>ATOM
      1 N         141.8817  138.2838  157.7987 N.am    1  UNL1       -0.2806
      2 C         142.9533  139.3316  157.8595 C.2     1  UNL1        0.2495
      3 O         144.1083  139.2795  156.9038 O.2     1  UNL1       -0.2698
      4 H         141.1237  138.3180  158.4260 H       1  UNL1        0.1552
      5 C         140.7491  138.6917  155.0508 C.3     1  UNL1        0.0323
      6 C         141.3988  137.3878  155.4083 C.ar    1  UNL1       -0.0087
      7 C         141.4821  136.2879  154.3918 C.ar    1  UNL1       -0.0072
      8 C         142.1318  134.9840  154.7493 C.ar    1  UNL1       -0.0192
      9 C         142.2151  133.8840  153.7328 C.3     1  UNL1        0.0311
     10 C         142.6981  134.7800  156.1232 C.ar    1  UNL1        0.0312
     11 C         142.6147  135.8799  157.1396 C.ar    1  UNL1        0.0170
     12 C         141.9650  137.1838  156.7822 C.ar    1  UNL1        0.0466
     13 C         143.3477  133.4761  156.4807 C.ar    1  UNL1        0.1403
     14 N         142.6448  132.2482  156.9789 N.ar    1  UNL1       -0.2254
     15 C         143.6770  131.1843  157.2088 C.ar    1  UNL1        0.1189
     16 C         145.0178  131.7548  156.8527 C.ar    1  UNL1        0.0945
     17 N         144.8143  133.1711  156.4027 N.ar    1  UNL1       -0.3361
     18 H         145.5195  133.7916  156.1079 H       1  UNL1        0.1674
     19 C         142.8700  140.4315  158.8760 C.ar    1  UNL1        0.0539
     20 C         141.9975  140.2704  160.0855 C.ar    1  UNL1        0.0076
     21 C         141.9141  141.3703  161.1020 C.ar    1  UNL1        0.0371
     22 C         142.7032  142.6312  160.9090 C.ar    1  UNL1        0.1391
     23 C         143.5757  142.7923  159.6996 C.ar    1  UNL1        0.0371
     24 C         143.6591  141.6925  158.6831 C.ar    1  UNL1        0.0076
     25 O         142.6199  143.7312  161.9256 O.3     1  UNL1       -0.4690
     26 C         141.5004  144.7276  161.8624 C.3     1  UNL1        0.2508
     27 C         140.2859  144.5467  162.7238 C.ar    1  UNL1        0.1026
     28 C         140.3933  144.6954  164.2125 C.ar    1  UNL1        0.0185
     29 C         139.1788  144.5146  165.0740 C.ar    1  UNL1        0.0029
     30 C         137.8567  144.1849  164.4467 C.ar    1  UNL1        0.0207
     31 C         137.7492  144.0361  162.9579 C.ar    1  UNL1        0.0986
     32 N         138.9638  144.2170  162.0965 N.ar    1  UNL1       -0.2445
@<TRIPOS>BOND
     1     5     6    1
     2     6     7   ar
     3     7     8   ar
     4     8     9    1
     5     8    10   ar
     6    10    13    1
     7    13    14   ar
     8    14    15   ar
     9    15    16   ar
    10    16    17   ar
    11    10    11   ar
    12    11    12   ar
    13    12     1    1
    14     1     2   am
    15     2     3    2
    16     2    19    1
    17    19    20   ar
    18    20    21   ar
    19    21    22   ar
    20    22    25    1
    21    25    26    1
    22    26    27    1
    23    27    28   ar
    24    28    29   ar
    25    29    30   ar
    26    30    31   ar
    27    31    32   ar
    28    22    23   ar
    29    23    24   ar
    30    12     6   ar
    31    24    19   ar
    32    17    13   ar
    33    32    27   ar
    34    17    18    1
    35     1     4    1
@<TRIPOS>MOLECULE
*****
 32 35 0 0 0
SMALL
GASTEIGER

@<TRIPOS>ATOM
      1 N         140.2537  139.0039  160.2041 N.am    1  UNL1       -0.2806
      2 C         139.8802  139.0892  158.7539 C.2     1  UNL1        0.2495
      3 O         138.8524  140.0835  158.3013 O.2     1  UNL1       -0.2698
      4 H         140.9283  138.3513  160.5011 H       1  UNL1        0.1552
      5 C         138.1176  137.9437  162.0244 C.3     1  UNL1        0.0323
      6 C         138.5313  139.3829  162.1120 C.ar    1  UNL1       -0.0087
      7 C         137.8770  140.2920  163.1097 C.ar    1  UNL1       -0.0072
      8 C         138.2907  141.7312  163.1972 C.ar    1  UNL1       -0.0192
      9 C         137.6363  142.6403  164.1949 C.3     1  UNL1        0.0311
     10 C         139.3587  142.2613  162.2871 C.ar    1  UNL1        0.0312
     11 C         140.0130  141.3522  161.2894 C.ar    1  UNL1        0.0170
     12 C         139.5993  139.9130  161.2018 C.ar    1  UNL1        0.0466
     13 C         139.7723  143.7004  162.3746 C.ar    1  UNL1        0.1403
     14 N         140.9318  144.2384  163.1596 N.ar    1  UNL1       -0.2254
     15 C         140.9752  145.7248  162.9627 C.ar    1  UNL1        0.1189
     16 C         139.8426  146.1055  162.0560 C.ar    1  UNL1        0.0945
     17 N         139.0992  144.8544  161.6925 N.ar    1  UNL1       -0.3361
     18 H         138.3082  144.8001  161.1088 H       1  UNL1        0.1674
     19 C         140.5346  138.1801  157.7561 C.ar    1  UNL1        0.0539
     20 C         139.7116  137.5218  156.6887 C.ar    1  UNL1        0.0076
     21 C         140.3659  136.6128  155.6910 C.ar    1  UNL1        0.0371
     22 C         141.8431  136.3620  155.7607 C.ar    1  UNL1        0.1391
     23 C         142.6661  137.0202  156.8282 C.ar    1  UNL1        0.0371
     24 C         142.0118  137.9293  157.8259 C.ar    1  UNL1        0.0076
     25 O         142.4975  135.4529  154.7630 O.3     1  UNL1       -0.4690
     26 C         142.3671  133.9653  154.9053 C.3     1  UNL1        0.2508
     27 C         143.3432  133.2046  155.7530 C.ar    1  UNL1        0.1026
     28 C         143.9298  131.9187  155.2506 C.ar    1  UNL1        0.0185
     29 C         144.9058  131.1580  156.0983 C.ar    1  UNL1        0.0029
     30 C         145.2953  131.6832  157.4484 C.ar    1  UNL1        0.0207
     31 C         144.7086  132.9690  157.9507 C.ar    1  UNL1        0.0986
     32 N         143.7325  133.7298  157.1030 N.ar    1  UNL1       -0.2445
@<TRIPOS>BOND
     1     5     6    1
     2     6     7   ar
     3     7     8   ar
     4     8     9    1
     5     8    10   ar
     6    10    13    1
     7    13    14   ar
     8    14    15   ar
     9    15    16   ar
    10    16    17   ar
    11    10    11   ar
    12    11    12   ar
    13    12     1    1
    14     1     2   am
    15     2     3    2
    16     2    19    1
    17    19    20   ar
    18    20    21   ar
    19    21    22   ar
    20    22    25    1
    21    25    26    1
    22    26    27    1
    23    27    28   ar
    24    28    29   ar
    25    29    30   ar
    26    30    31   ar
    27    31    32   ar
    28    22    23   ar
    29    23    24   ar
    30    12     6   ar
    31    24    19   ar
    32    17    13   ar
    33    32    27   ar
    34    17    18    1
    35     1     4    1
@<TRIPOS>MOLECULE
*****
 32 35 0 0 0
SMALL
GASTEIGER

@<TRIPOS>ATOM
      1 N         142.3715  139.0736  160.5402 N.am    1  UNL1       -0.2806
      2 C         143.1939  138.4500  161.6286 C.2     1  UNL1        0.2495
      3 O         144.3563  137.5688  161.2791 O.2     1  UNL1       -0.2698
      4 H         141.6086  139.6520  160.7696 H       1  UNL1        0.1552
      5 C         143.4480  141.2931  158.8327 C.3     1  UNL1        0.0323
      6 C         143.2499  139.9258  158.2484 C.ar    1  UNL1       -0.0087
      7 C         143.5901  139.6683  156.8104 C.ar    1  UNL1       -0.0072
      8 C         143.3920  138.3011  156.2260 C.ar    1  UNL1       -0.0192
      9 C         143.7321  138.0436  154.7879 C.3     1  UNL1        0.0311
     10 C         142.8537  137.1914  157.0797 C.ar    1  UNL1        0.0312
     11 C         142.5136  137.4489  158.5177 C.ar    1  UNL1        0.0170
     12 C         142.7117  138.8161  159.1021 C.ar    1  UNL1        0.0466
     13 C         142.6556  135.8241  156.4954 C.ar    1  UNL1        0.1403
     14 N         143.6898  134.7404  156.4171 N.ar    1  UNL1       -0.2254
     15 C         143.0619  133.5471  155.7601 C.ar    1  UNL1        0.1189
     16 C         141.6397  133.8932  155.4323 C.ar    1  UNL1        0.0945
     17 N         141.3886  135.3005  155.8867 N.ar    1  UNL1       -0.3361
     18 H         140.5410  135.7939  155.8006 H       1  UNL1        0.1674
     19 C         142.8537  138.7075  163.0667 C.ar    1  UNL1        0.0539
     20 C         143.5949  139.7607  163.8357 C.ar    1  UNL1        0.0076
     21 C         143.2548  140.0182  165.2738 C.ar    1  UNL1        0.0371
     22 C         142.1735  139.2225  165.9428 C.ar    1  UNL1        0.1391
     23 C         141.4323  138.1693  165.1738 C.ar    1  UNL1        0.0371
     24 C         141.7724  137.9118  163.7358 C.ar    1  UNL1        0.0076
     25 O         141.8333  139.4800  167.3809 O.3     1  UNL1       -0.4690
     26 C         140.5772  140.2202  167.7335 C.3     1  UNL1        0.2508
     27 C         139.9649  141.1706  166.7478 C.ar    1  UNL1        0.1026
     28 C         140.4092  142.6029  166.7115 C.ar    1  UNL1        0.0185
     29 C         139.7968  143.5533  165.7257 C.ar    1  UNL1        0.0029
     30 C         138.7402  143.0715  164.7762 C.ar    1  UNL1        0.0207
     31 C         138.2960  141.6392  164.8126 C.ar    1  UNL1        0.0986
     32 N         138.9083  140.6888  165.7984 N.ar    1  UNL1       -0.2445
@<TRIPOS>BOND
     1     5     6    1
     2     6     7   ar
     3     7     8   ar
     4     8     9    1
     5     8    10   ar
     6    10    13    1
     7    13    14   ar
     8    14    15   ar
     9    15    16   ar
    10    16    17   ar
    11    10    11   ar
    12    11    12   ar
    13    12     1    1
    14     1     2   am
    15     2     3    2
    16     2    19    1
    17    19    20   ar
    18    20    21   ar
    19    21    22   ar
    20    22    25    1
    21    25    26    1
    22    26    27    1
    23    27    28   ar
    24    28    29   ar
    25    29    30   ar
    26    30    31   ar
    27    31    32   ar
    28    22    23   ar
    29    23    24   ar
    30    12     6   ar
    31    24    19   ar
    32    17    13   ar
    33    32    27   ar
    34    17    18    1
    35     1     4    1
@<TRIPOS>MOLECULE
*****
 32 35 0 0 0
SMALL
GASTEIGER

@<TRIPOS>ATOM
      1 N         139.2532  139.5616  160.0922 N.am    1  UNL1       -0.2806
      2 C         140.6812  139.4290  159.6527 C.2     1  UNL1        0.2495
      3 O         141.7549  140.2158  160.3441 O.2     1  UNL1       -0.2698
      4 H         138.5485  139.0452  159.6384 H       1  UNL1        0.1552
      5 C         138.3229  142.3556  159.5188 C.3     1  UNL1        0.0323
      6 C         138.4337  141.8781  160.9364 C.ar    1  UNL1       -0.0087
      7 C         138.0794  142.7975  162.0674 C.ar    1  UNL1       -0.0072
      8 C         138.1902  142.3201  163.4850 C.ar    1  UNL1       -0.0192
      9 C         137.8359  143.2396  164.6160 C.3     1  UNL1        0.0311
     10 C         138.6553  140.9232  163.7717 C.ar    1  UNL1        0.0312
     11 C         139.0096  140.0037  162.6408 C.ar    1  UNL1        0.0170
     12 C         138.8988  140.4812  161.2232 C.ar    1  UNL1        0.0466
     13 C         138.7661  140.4457  165.1894 C.ar    1  UNL1        0.1403
     14 N         139.8255  140.8443  166.1738 N.ar    1  UNL1       -0.2254
     15 C         139.5511  140.1307  167.4643 C.ar    1  UNL1        0.1189
     16 C         138.3222  139.2911  167.2776 C.ar    1  UNL1        0.0945
     17 N         137.8371  139.4858  165.8716 N.ar    1  UNL1       -0.3361
     18 H         137.0475  139.0585  165.4675 H       1  UNL1        0.1674
     19 C         141.0355  138.5094  158.5218 C.ar    1  UNL1        0.0539
     20 C         139.9658  138.0154  157.5936 C.ar    1  UNL1        0.0076
     21 C         140.3200  137.0959  156.4627 C.ar    1  UNL1        0.0371
     22 C         141.7440  136.6705  156.2599 C.ar    1  UNL1        0.1391
     23 C         142.8138  137.1645  157.1882 C.ar    1  UNL1        0.0371
     24 C         142.4595  138.0840  158.3191 C.ar    1  UNL1        0.0076
     25 O         142.0984  135.7509  155.1290 O.3     1  UNL1       -0.4690
     26 C         141.9144  134.2700  155.2807 C.3     1  UNL1        0.2508
     27 C         142.9998  133.4388  155.8978 C.ar    1  UNL1        0.1026
     28 C         143.5521  132.2569  155.1574 C.ar    1  UNL1        0.0185
     29 C         144.6375  131.4256  155.7745 C.ar    1  UNL1        0.0029
     30 C         145.1707  131.7762  157.1321 C.ar    1  UNL1        0.0207
     31 C         144.6184  132.9581  157.8725 C.ar    1  UNL1        0.0986
     32 N         143.5329  133.7894  157.2553 N.ar    1  UNL1       -0.2445
@<TRIPOS>BOND
     1     5     6    1
     2     6     7   ar
     3     7     8   ar
     4     8     9    1
     5     8    10   ar
     6    10    13    1
     7    13    14   ar
     8    14    15   ar
     9    15    16   ar
    10    16    17   ar
    11    10    11   ar
    12    11    12   ar
    13    12     1    1
    14     1     2   am
    15     2     3    2
    16     2    19    1
    17    19    20   ar
    18    20    21   ar
    19    21    22   ar
    20    22    25    1
    21    25    26    1
    22    26    27    1
    23    27    28   ar
    24    28    29   ar
    25    29    30   ar
    26    30    31   ar
    27    31    32   ar
    28    22    23   ar
    29    23    24   ar
    30    12     6   ar
    31    24    19   ar
    32    17    13   ar
    33    32    27   ar
    34    17    18    1
    35     1     4    1
@<TRIPOS>MOLECULE
*****
 32 35 0 0 0
SMALL
GASTEIGER

@<TRIPOS>ATOM
      1 N         140.6731  140.3401  162.3539 N.am    1  UNL1       -0.2806
      2 C         139.3467  140.0252  162.9795 C.2     1  UNL1        0.2495
      3 O         138.1352  139.8381  162.1151 O.2     1  UNL1       -0.2698
      4 H         141.4682  140.4629  162.9212 H       1  UNL1        0.1552
      5 C         140.0714  142.9602  161.0222 C.3     1  UNL1        0.0323
      6 C         140.4872  141.7779  160.1979 C.ar    1  UNL1       -0.0087
      7 C         140.6021  141.9057  158.7078 C.ar    1  UNL1       -0.0072
      8 C         141.0178  140.7235  157.8835 C.ar    1  UNL1       -0.0192
      9 C         141.1328  140.8513  156.3933 C.3     1  UNL1        0.0311
     10 C         141.3187  139.4135  158.5493 C.ar    1  UNL1        0.0312
     11 C         141.2037  139.2857  160.0394 C.ar    1  UNL1        0.0170
     12 C         140.7880  140.4679  160.8637 C.ar    1  UNL1        0.0466
     13 C         141.7344  138.2312  157.7250 C.ar    1  UNL1        0.1403
     14 N         143.1447  137.8077  157.4393 N.ar    1  UNL1       -0.2254
     15 C         143.0948  136.5796  156.5794 C.ar    1  UNL1        0.1189
     16 C         141.6536  136.2442  156.3336 C.ar    1  UNL1        0.0945
     17 N         140.8128  137.2649  157.0416 N.ar    1  UNL1       -0.3361
     18 H         139.8289  137.2953  157.0554 H       1  UNL1        0.1674
     19 C         139.2318  139.8973  164.4697 C.ar    1  UNL1        0.0539
     20 C         138.3073  138.8776  165.0659 C.ar    1  UNL1        0.0076
     21 C         138.1923  138.7497  166.5559 C.ar    1  UNL1        0.0371
     22 C         139.0019  139.6416  167.4499 C.ar    1  UNL1        0.1391
     23 C         139.9264  140.6614  166.8537 C.ar    1  UNL1        0.0371
     24 C         140.0413  140.7892  165.3636 C.ar    1  UNL1        0.0076
     25 O         138.8870  139.5138  168.9400 O.3     1  UNL1       -0.4690
     26 C         139.1537  140.7008  169.8174 C.3     1  UNL1        0.2508
     27 C         140.5401  141.2650  169.9149 C.ar    1  UNL1        0.1026
     28 C         140.7417  142.7490  170.0002 C.ar    1  UNL1        0.0185
     29 C         142.1281  143.3131  170.0977 C.ar    1  UNL1        0.0029
     30 C         143.3130  142.3934  170.1098 C.ar    1  UNL1        0.0207
     31 C         143.1114  140.9094  170.0245 C.ar    1  UNL1        0.0986
     32 N         141.7249  140.3453  169.9270 N.ar    1  UNL1       -0.2445
@<TRIPOS>BOND
     1     5     6    1
     2     6     7   ar
     3     7     8   ar
     4     8     9    1
     5     8    10   ar
     6    10    13    1
     7    13    14   ar
     8    14    15   ar
     9    15    16   ar
    10    16    17   ar
    11    10    11   ar
    12    11    12   ar
    13    12     1    1
    14     1     2   am
    15     2     3    2
    16     2    19    1
    17    19    20   ar
    18    20    21   ar
    19    21    22   ar
    20    22    25    1
    21    25    26    1
    22    26    27    1
    23    27    28   ar
    24    28    29   ar
    25    29    30   ar
    26    30    31   ar
    27    31    32   ar
    28    22    23   ar
    29    23    24   ar
    30    12     6   ar
    31    24    19   ar
    32    17    13   ar
    33    32    27   ar
    34    17    18    1
    35     1     4    1
@<TRIPOS>MOLECULE
*****
 32 35 0 0 0
SMALL
GASTEIGER

@<TRIPOS>ATOM
      1 N         140.7056  140.6750  162.4679 N.am    1  UNL1       -0.2806
      2 C         139.3612  140.3987  163.0730 C.2     1  UNL1        0.2495
      3 O         138.1442  140.3337  162.1986 O.2     1  UNL1       -0.2698
      4 H         141.5044  140.7177  163.0418 H       1  UNL1        0.1552
      5 C         140.7610  138.3160  160.6152 C.3     1  UNL1        0.0323
      6 C         140.8607  139.7067  160.0620 C.ar    1  UNL1       -0.0087
      7 C         140.9882  139.9179  158.5824 C.ar    1  UNL1       -0.0072
      8 C         141.0879  141.3086  158.0292 C.ar    1  UNL1       -0.0192
      9 C         141.2154  141.5198  156.5495 C.3     1  UNL1        0.0311
     10 C         141.0603  142.4880  158.9555 C.ar    1  UNL1        0.0312
     11 C         140.9328  142.2768  160.4350 C.ar    1  UNL1        0.0170
     12 C         140.8331  140.8862  160.9883 C.ar    1  UNL1        0.0466
     13 C         141.1600  143.8787  158.4022 C.ar    1  UNL1        0.1403
     14 N         140.0166  144.7169  157.9125 N.ar    1  UNL1       -0.2254
     15 C         140.5706  146.0316  157.4491 C.ar    1  UNL1        0.1189
     16 C         142.0565  146.0059  157.6525 C.ar    1  UNL1        0.0945
     17 N         142.4208  144.6754  158.2416 N.ar    1  UNL1       -0.3361
     18 H         143.3281  144.3773  158.4808 H       1  UNL1        0.1674
     19 C         139.2337  140.1876  164.5526 C.ar    1  UNL1        0.0539
     20 C         138.2768  139.1621  165.0842 C.ar    1  UNL1        0.0076
     21 C         138.1493  138.9509  166.5637 C.ar    1  UNL1        0.0371
     22 C         138.9788  139.7652  167.5117 C.ar    1  UNL1        0.1391
     23 C         139.9357  140.7907  166.9802 C.ar    1  UNL1        0.0371
     24 C         140.0632  141.0019  165.5007 C.ar    1  UNL1        0.0076
     25 O         138.8513  139.5540  168.9914 O.3     1  UNL1       -0.4690
     26 C         139.1502  140.6786  169.9379 C.3     1  UNL1        0.2508
     27 C         140.5344  141.2522  170.0078 C.ar    1  UNL1        0.1026
     28 C         140.7298  142.7392  170.0307 C.ar    1  UNL1        0.0185
     29 C         142.1140  143.3128  170.1006 C.ar    1  UNL1        0.0029
     30 C         143.3029  142.3994  170.1476 C.ar    1  UNL1        0.0207
     31 C         143.1076  140.9123  170.1248 C.ar    1  UNL1        0.0986
     32 N         141.7233  140.3387  170.0549 N.ar    1  UNL1       -0.2445
@<TRIPOS>BOND
     1     5     6    1
     2     6     7   ar
     3     7     8   ar
     4     8     9    1
     5     8    10   ar
     6    10    13    1
     7    13    14   ar
     8    14    15   ar
     9    15    16   ar
    10    16    17   ar
    11    10    11   ar
    12    11    12   ar
    13    12     1    1
    14     1     2   am
    15     2     3    2
    16     2    19    1
    17    19    20   ar
    18    20    21   ar
    19    21    22   ar
    20    22    25    1
    21    25    26    1
    22    26    27    1
    23    27    28   ar
    24    28    29   ar
    25    29    30   ar
    26    30    31   ar
    27    31    32   ar
    28    22    23   ar
    29    23    24   ar
    30    12     6   ar
    31    24    19   ar
    32    17    13   ar
    33    32    27   ar
    34    17    18    1
    35     1     4    1
