@<TRIPOS>MOLECULE
*****
 33 35 0 0 0
SMALL
GASTEIGER

@<TRIPOS>ATOM
      1 S         140.6370  138.8255  161.9855 S.O2    1  UNL1        0.0633
      2 O         140.8073  140.2999  161.7687 O.2     1  UNL1       -0.1528
      3 O         140.4667  137.3511  162.2023 O.2     1  UNL1       -0.1528
      4 C         143.4631  138.2077  161.1908 C.3     1  UNL1        0.0206
      5 C         142.3865  138.2660  160.1480 C.3     1  UNL1        0.0956
      6 C         142.7229  138.0155  158.7079 C.3     1  UNL1        0.0900
      7 N         141.6462  138.0738  157.6651 N.3     1  UNL1       -0.2698
      8 C         140.2332  138.3827  158.0624 C.3     1  UNL1        0.0915
      9 C         139.8968  138.6332  159.5025 C.3     1  UNL1        0.1131
     10 N         140.9735  138.5749  160.5453 N.3     1  UNL1       -0.1541
     11 C         141.9827  137.8232  156.2249 C.3     1  UNL1        0.0807
     12 C         142.9012  136.6967  155.8543 C.3     1  UNL1        0.0833
     13 C         144.1347  135.9760  155.3972 C.3     1  UNL1        0.0105
     14 C         144.1273  137.4738  155.4764 C.3     1  UNL1        0.0105
     15 C         141.9941  135.5283  156.1035 C.2     1  UNL1        0.2198
     16 N         140.5421  135.6147  155.7375 N.am    1  UNL1       -0.3288
     17 O         142.5392  134.2734  156.7186 O.2     1  UNL1       -0.2753
     18 H         140.1843  136.4382  155.3338 H       1  UNL1        0.1449
     19 H         139.9467  134.8478  155.9010 H       1  UNL1        0.1449
     20 C         140.3006  139.0762  163.4256 C.ar    1  UNL1        0.1222
     21 C         141.3490  138.8958  164.4831 C.ar    1  UNL1        0.0197
     22 C         141.0125  139.1464  165.9233 C.ar    1  UNL1       -0.0004
     23 C         139.6277  139.5775  166.3059 C.ar    1  UNL1        0.0099
     24 C         138.5793  139.7579  165.2484 C.ar    1  UNL1       -0.0004
     25 C         138.9157  139.5072  163.8083 C.ar    1  UNL1        0.0197
     26 C         139.2912  139.8281  167.7460 C.3     1  UNL1        0.1945
     27 C         138.9548  140.0788  169.1862 C.3     1  UNL1        0.0428
     28 O         138.1629  138.8442  167.6536 O.3     1  UNL1       -0.3751
     29 H         138.1248  138.4793  166.7557 H       1  UNL1        0.2110
     30 C         140.4196  140.8121  167.8383 C.3     1  UNL1        0.4230
     31 F         141.5480  141.7961  167.9307 F       1  UNL1       -0.1673
     32 F         139.9843  141.9471  166.9597 F       1  UNL1       -0.1673
     33 F         141.1498  139.8876  168.7670 F       1  UNL1       -0.1673
@<TRIPOS>BOND
     1     5     4    1
     2     5     6    1
     3     6     7    1
     4     7    11    1
     5    11    12    1
     6    12    15    1
     7    15    16   am
     8    15    17    2
     9    12    13    1
    10    13    14    1
    11     7     8    1
    12     8     9    1
    13     9    10    1
    14    10     1    1
    15     1     2    2
    16     1     3    2
    17     1    20    1
    18    20    21   ar
    19    21    22   ar
    20    22    23   ar
    21    23    26    1
    22    26    27    1
    23    26    28    1
    24    26    30    1
    25    30    31    1
    26    30    32    1
    27    30    33    1
    28    23    24   ar
    29    24    25   ar
    30    10     5    1
    31    25    20   ar
    32    14    12    1
    33    16    18    1
    34    16    19    1
    35    28    29    1
@<TRIPOS>MOLECULE
*****
 33 35 0 0 0
SMALL
GASTEIGER

@<TRIPOS>ATOM
      1 S         142.6007  142.6210  164.1215 S.O2    1  UNL1        0.0633
      2 O         142.9426  144.0712  164.2952 O.2     1  UNL1       -0.1528
      3 O         142.2588  141.1709  163.9478 O.2     1  UNL1       -0.1528
      4 C         145.3877  141.9822  163.2132 C.3     1  UNL1        0.0206
      5 C         144.3483  142.3924  162.2125 C.3     1  UNL1        0.0956
      6 C         144.7023  142.4833  160.7578 C.3     1  UNL1        0.0900
      7 N         143.6628  142.8935  159.7571 N.3     1  UNL1       -0.2698
      8 C         142.2694  143.2129  160.2113 C.3     1  UNL1        0.0915
      9 C         141.9154  143.1221  161.6660 C.3     1  UNL1        0.1131
     10 N         142.9548  142.7119  162.6667 N.3     1  UNL1       -0.1541
     11 C         144.0169  142.9843  158.3023 C.3     1  UNL1        0.0807
     12 C         144.5722  141.7871  157.5894 C.3     1  UNL1        0.0833
     13 C         145.4990  140.9391  156.7697 C.3     1  UNL1        0.0105
     14 C         145.8347  142.3768  157.0342 C.3     1  UNL1        0.0105
     15 C         143.5026  140.7815  157.8970 C.2     1  UNL1        0.2198
     16 N         142.0888  141.0342  157.4643 N.am    1  UNL1       -0.3288
     17 O         143.8468  139.5231  158.6373 O.2     1  UNL1       -0.2753
     18 H         141.8629  141.8601  156.9784 H       1  UNL1        0.1449
     19 H         141.3868  140.3742  157.6662 H       1  UNL1        0.1449
     20 C         142.2467  142.5303  165.5763 C.ar    1  UNL1        0.1222
     21 C         140.8156  142.6521  166.0089 C.ar    1  UNL1        0.0197
     22 C         140.4616  142.5614  167.4638 C.ar    1  UNL1       -0.0004
     23 C         141.5386  142.3487  168.4859 C.ar    1  UNL1        0.0099
     24 C         142.9697  142.2269  168.0532 C.ar    1  UNL1       -0.0004
     25 C         143.3238  142.3176  166.5985 C.ar    1  UNL1        0.0197
     26 C         141.1846  142.2580  169.9406 C.3     1  UNL1        0.1945
     27 C         140.8305  142.1672  171.3954 C.3     1  UNL1        0.0428
     28 O         142.0977  143.4111  170.2348 O.3     1  UNL1       -0.3751
     29 H         142.5103  143.7150  169.4112 H       1  UNL1        0.2110
     30 C         140.2715  141.1048  169.6465 C.3     1  UNL1        0.4230
     31 F         139.3584  139.9516  169.3523 F       1  UNL1       -0.1673
     32 F         141.1862  140.0465  169.1051 F       1  UNL1       -0.1673
     33 F         139.1010  141.9080  170.1311 F       1  UNL1       -0.1673
@<TRIPOS>BOND
     1     5     4    1
     2     5     6    1
     3     6     7    1
     4     7    11    1
     5    11    12    1
     6    12    15    1
     7    15    16   am
     8    15    17    2
     9    12    13    1
    10    13    14    1
    11     7     8    1
    12     8     9    1
    13     9    10    1
    14    10     1    1
    15     1     2    2
    16     1     3    2
    17     1    20    1
    18    20    21   ar
    19    21    22   ar
    20    22    23   ar
    21    23    26    1
    22    26    27    1
    23    26    28    1
    24    26    30    1
    25    30    31    1
    26    30    32    1
    27    30    33    1
    28    23    24   ar
    29    24    25   ar
    30    10     5    1
    31    25    20   ar
    32    14    12    1
    33    16    18    1
    34    16    19    1
    35    28    29    1
@<TRIPOS>MOLECULE
*****
 33 35 0 0 0
SMALL
GASTEIGER

@<TRIPOS>ATOM
      1 S         141.7869  139.0634  164.2724 S.O2    1  UNL1        0.0633
      2 O         141.9541  140.5157  163.9366 O.2     1  UNL1       -0.1528
      3 O         141.6197  137.6111  164.6082 O.2     1  UNL1       -0.1528
      4 C         139.4844  138.9936  162.3505 C.3     1  UNL1        0.0206
      5 C         140.8692  138.6693  161.8739 C.3     1  UNL1        0.0956
      6 C         141.1028  138.3102  160.4364 C.3     1  UNL1        0.0900
      7 N         142.4876  137.9859  159.9599 N.3     1  UNL1       -0.2698
      8 C         143.6388  138.0208  160.9208 C.3     1  UNL1        0.0915
      9 C         143.4052  138.3799  162.3582 C.3     1  UNL1        0.1131
     10 N         142.0204  138.7042  162.8348 N.3     1  UNL1       -0.1541
     11 C         142.7211  137.6267  158.5223 C.3     1  UNL1        0.0807
     12 C         142.2955  138.5686  157.4352 C.3     1  UNL1        0.0833
     13 C         141.5576  139.1063  156.2452 C.3     1  UNL1        0.0105
     14 C         141.2486  137.7323  156.7610 C.3     1  UNL1        0.0105
     15 C         143.1946  139.7320  157.7319 C.2     1  UNL1        0.2198
     16 N         142.6858  140.8846  158.5459 N.am    1  UNL1       -0.3288
     17 O         144.6025  139.7429  157.2145 O.2     1  UNL1       -0.2753
     18 H         141.7617  140.8775  158.8854 H       1  UNL1        0.1449
     19 H         143.2759  141.6482  158.7406 H       1  UNL1        0.1449
     20 C         141.5534  139.4226  165.7099 C.ar    1  UNL1        0.1222
     21 C         140.2080  139.9192  166.1499 C.ar    1  UNL1        0.0197
     22 C         139.9745  140.2784  167.5874 C.ar    1  UNL1       -0.0004
     23 C         141.0863  140.1411  168.5849 C.ar    1  UNL1        0.0099
     24 C         142.4317  139.6446  168.1449 C.ar    1  UNL1       -0.0004
     25 C         142.6652  139.2853  166.7074 C.ar    1  UNL1        0.0197
     26 C         140.8528  140.5003  170.0224 C.3     1  UNL1        0.1945
     27 C         140.6193  140.8596  171.4599 C.3     1  UNL1        0.0428
     28 O         141.2426  139.1112  170.4328 O.3     1  UNL1       -0.3751
     29 H         141.4690  138.5928  169.6449 H       1  UNL1        0.2110
     30 C         140.4631  141.8894  169.6119 C.3     1  UNL1        0.4230
     31 F         140.0733  143.2785  169.2014 F       1  UNL1       -0.1673
     32 F         141.7225  142.4642  169.0345 F       1  UNL1       -0.1673
     33 F         139.0677  141.6435  170.1046 F       1  UNL1       -0.1673
@<TRIPOS>BOND
     1     5     4    1
     2     5     6    1
     3     6     7    1
     4     7    11    1
     5    11    12    1
     6    12    15    1
     7    15    16   am
     8    15    17    2
     9    12    13    1
    10    13    14    1
    11     7     8    1
    12     8     9    1
    13     9    10    1
    14    10     1    1
    15     1     2    2
    16     1     3    2
    17     1    20    1
    18    20    21   ar
    19    21    22   ar
    20    22    23   ar
    21    23    26    1
    22    26    27    1
    23    26    28    1
    24    26    30    1
    25    30    31    1
    26    30    32    1
    27    30    33    1
    28    23    24   ar
    29    24    25   ar
    30    10     5    1
    31    25    20   ar
    32    14    12    1
    33    16    18    1
    34    16    19    1
    35    28    29    1
@<TRIPOS>MOLECULE
*****
 33 35 0 0 0
SMALL
GASTEIGER

@<TRIPOS>ATOM
      1 S         141.4946  143.5606  163.1136 S.O2    1  UNL1        0.0633
      2 O         142.1950  144.8306  163.4961 O.2     1  UNL1       -0.1528
      3 O         140.7941  142.2906  162.7310 O.2     1  UNL1       -0.1528
      4 C         139.1632  144.1403  164.9104 C.3     1  UNL1        0.0206
      5 C         140.3563  143.4041  165.4438 C.3     1  UNL1        0.0956
      6 C         140.3838  142.9578  166.8756 C.3     1  UNL1        0.0900
      7 N         141.5769  142.2216  167.4089 N.3     1  UNL1       -0.2698
      8 C         142.7426  141.9318  166.5106 C.3     1  UNL1        0.0915
      9 C         142.7151  142.3781  165.0788 C.3     1  UNL1        0.1131
     10 N         141.5220  143.1143  164.5454 N.3     1  UNL1       -0.1541
     11 C         141.6043  141.7753  168.8408 C.3     1  UNL1        0.0807
     12 C         140.3197  141.5085  169.5679 C.3     1  UNL1        0.0833
     13 C         139.0866  140.7934  170.0346 C.3     1  UNL1        0.0105
     14 C         140.0215  140.1251  169.0708 C.3     1  UNL1        0.0105
     15 C         140.1718  142.7993  170.3176 C.2     1  UNL1        0.2198
     16 N         141.2435  143.8450  170.2293 N.am    1  UNL1       -0.3288
     17 O         138.9521  143.0443  171.1557 O.2     1  UNL1       -0.2753
     18 H         142.0441  143.6842  169.6792 H       1  UNL1        0.1449
     19 H         141.1465  144.6922  170.7213 H       1  UNL1        0.1449
     20 C         141.4672  144.0069  161.6818 C.ar    1  UNL1        0.1222
     21 C         142.5004  143.5018  160.7188 C.ar    1  UNL1        0.0197
     22 C         142.4730  143.9482  159.2870 C.ar    1  UNL1       -0.0004
     23 C         141.4123  144.8996  158.8182 C.ar    1  UNL1        0.0099
     24 C         140.3791  145.4047  159.7812 C.ar    1  UNL1       -0.0004
     25 C         140.4065  144.9584  161.2129 C.ar    1  UNL1        0.0197
     26 C         141.3849  145.3460  157.3864 C.3     1  UNL1        0.1945
     27 C         141.3575  145.7923  155.9546 C.3     1  UNL1        0.0428
     28 O         142.6878  146.0623  157.5848 O.3     1  UNL1       -0.3751
     29 H         142.9854  145.9445  158.5005 H       1  UNL1        0.2110
     30 C         140.0821  144.6297  157.1881 C.3     1  UNL1        0.4230
     31 F         138.7792  143.9133  156.9897 F       1  UNL1       -0.1673
     32 F         140.4185  143.1890  157.4357 F       1  UNL1       -0.1673
     33 F         139.4103  145.9358  156.8834 F       1  UNL1       -0.1673
@<TRIPOS>BOND
     1     5     4    1
     2     5     6    1
     3     6     7    1
     4     7    11    1
     5    11    12    1
     6    12    15    1
     7    15    16   am
     8    15    17    2
     9    12    13    1
    10    13    14    1
    11     7     8    1
    12     8     9    1
    13     9    10    1
    14    10     1    1
    15     1     2    2
    16     1     3    2
    17     1    20    1
    18    20    21   ar
    19    21    22   ar
    20    22    23   ar
    21    23    26    1
    22    26    27    1
    23    26    28    1
    24    26    30    1
    25    30    31    1
    26    30    32    1
    27    30    33    1
    28    23    24   ar
    29    24    25   ar
    30    10     5    1
    31    25    20   ar
    32    14    12    1
    33    16    18    1
    34    16    19    1
    35    28    29    1
@<TRIPOS>MOLECULE
*****
 33 35 0 0 0
SMALL
GASTEIGER

@<TRIPOS>ATOM
      1 S         140.7647  142.6044  163.6273 S.O2    1  UNL1        0.0633
      2 O         142.1384  142.1698  163.2102 O.2     1  UNL1       -0.1528
      3 O         139.3910  143.0390  164.0445 O.2     1  UNL1       -0.1528
      4 C         141.5302  145.4841  163.2787 C.3     1  UNL1        0.0206
      5 C         140.9567  144.7156  162.1253 C.3     1  UNL1        0.0956
      6 C         140.7659  145.3869  160.7975 C.3     1  UNL1        0.0900
      7 N         140.1924  144.6184  159.6441 N.3     1  UNL1       -0.2698
      8 C         139.8097  143.1786  159.8183 C.3     1  UNL1        0.0915
      9 C         140.0005  142.5073  161.1461 C.3     1  UNL1        0.1131
     10 N         140.5740  143.2758  162.2995 N.3     1  UNL1       -0.1541
     11 C         140.0017  145.2898  158.3163 C.3     1  UNL1        0.0807
     12 C         140.6173  144.6998  157.0822 C.3     1  UNL1        0.0833
     13 C         140.7281  144.0389  155.7402 C.3     1  UNL1        0.0105
     14 C         139.3779  144.2910  156.3427 C.3     1  UNL1        0.0105
     15 C         142.0705  144.9036  157.3931 C.2     1  UNL1        0.2198
     16 N         142.5793  146.2723  157.7361 N.am    1  UNL1       -0.3288
     17 O         143.0149  143.7386  157.3609 O.2     1  UNL1       -0.2753
     18 H         141.9594  147.0369  157.7573 H       1  UNL1        0.1449
     19 H         143.5331  146.4060  157.9402 H       1  UNL1        0.1449
     20 C         140.9555  141.9331  164.9550 C.ar    1  UNL1        0.1222
     21 C         140.7101  142.6956  166.2232 C.ar    1  UNL1        0.0197
     22 C         140.9009  142.0242  167.5509 C.ar    1  UNL1       -0.0004
     23 C         141.3371  140.5903  167.6105 C.ar    1  UNL1        0.0099
     24 C         141.5825  139.8277  166.3423 C.ar    1  UNL1       -0.0004
     25 C         141.3917  140.4991  165.0146 C.ar    1  UNL1        0.0197
     26 C         141.5279  139.9189  168.9382 C.3     1  UNL1        0.1945
     27 C         141.7187  139.2475  170.2659 C.3     1  UNL1        0.0428
     28 O         142.9228  139.5340  168.5431 O.3     1  UNL1       -0.3751
     29 H         143.1071  139.8604  167.6484 H       1  UNL1        0.2110
     30 C         140.1330  140.3038  169.3332 C.3     1  UNL1        0.4230
     31 F         138.7380  140.6887  169.7283 F       1  UNL1       -0.1673
     32 F         139.2635  139.5736  168.3530 F       1  UNL1       -0.1673
     33 F         140.6812  141.1524  170.4420 F       1  UNL1       -0.1673
@<TRIPOS>BOND
     1     5     4    1
     2     5     6    1
     3     6     7    1
     4     7    11    1
     5    11    12    1
     6    12    15    1
     7    15    16   am
     8    15    17    2
     9    12    13    1
    10    13    14    1
    11     7     8    1
    12     8     9    1
    13     9    10    1
    14    10     1    1
    15     1     2    2
    16     1     3    2
    17     1    20    1
    18    20    21   ar
    19    21    22   ar
    20    22    23   ar
    21    23    26    1
    22    26    27    1
    23    26    28    1
    24    26    30    1
    25    30    31    1
    26    30    32    1
    27    30    33    1
    28    23    24   ar
    29    24    25   ar
    30    10     5    1
    31    25    20   ar
    32    14    12    1
    33    16    18    1
    34    16    19    1
    35    28    29    1
@<TRIPOS>MOLECULE
*****
 33 35 0 0 0
SMALL
GASTEIGER

@<TRIPOS>ATOM
      1 S         140.9984  143.3056  164.0171 S.O2    1  UNL1        0.0633
      2 O         139.5170  143.1970  164.2262 O.2     1  UNL1       -0.1528
      3 O         142.4797  143.4143  163.8080 O.2     1  UNL1       -0.1528
      4 C         140.7875  141.0922  162.0030 C.3     1  UNL1        0.0206
      5 C         140.6650  142.5210  161.5629 C.3     1  UNL1        0.0956
      6 C         140.4371  142.8430  160.1157 C.3     1  UNL1        0.0900
      7 N         140.3146  144.2718  159.6756 N.3     1  UNL1       -0.2698
      8 C         140.4201  145.3784  160.6826 C.3     1  UNL1        0.0915
      9 C         140.6480  145.0564  162.1297 C.3     1  UNL1        0.1131
     10 N         140.7705  143.6277  162.5699 N.3     1  UNL1       -0.1541
     11 C         140.0867  144.5938  158.2283 C.3     1  UNL1        0.0807
     12 C         141.0746  144.1405  157.1946 C.3     1  UNL1        0.0833
     13 C         141.6280  143.4703  155.9721 C.3     1  UNL1        0.0105
     14 C         140.1669  143.3583  156.2922 C.3     1  UNL1        0.0105
     15 C         142.3253  144.7654  157.7378 C.2     1  UNL1        0.2198
     16 N         143.4255  143.8979  158.2736 N.am    1  UNL1       -0.3288
     17 O         142.4759  146.2578  157.7454 O.2     1  UNL1       -0.2753
     18 H         143.3266  142.9184  158.2686 H       1  UNL1        0.1449
     19 H         144.2464  144.3080  158.6301 H       1  UNL1        0.1449
     20 C         141.2263  142.9836  165.4643 C.ar    1  UNL1        0.1222
     21 C         142.5624  142.4748  165.9181 C.ar    1  UNL1        0.0197
     22 C         142.7902  142.1528  167.3653 C.ar    1  UNL1       -0.0004
     23 C         141.6820  142.3396  168.3587 C.ar    1  UNL1        0.0099
     24 C         140.3458  142.8484  167.9049 C.ar    1  UNL1       -0.0004
     25 C         140.1180  143.1704  166.4578 C.ar    1  UNL1        0.0197
     26 C         141.9098  142.0176  169.8059 C.3     1  UNL1        0.1945
     27 C         142.1377  141.6955  171.2531 C.3     1  UNL1        0.0428
     28 O         141.5180  143.4166  170.1789 O.3     1  UNL1       -0.3751
     29 H         141.2946  143.9145  169.3769 H       1  UNL1        0.2110
     30 C         142.3016  140.6186  169.4329 C.3     1  UNL1        0.4230
     31 F         142.6934  139.2195  169.0599 F       1  UNL1       -0.1673
     32 F         141.0521  140.0374  168.8405 F       1  UNL1       -0.1673
     33 F         143.6872  140.8686  169.9504 F       1  UNL1       -0.1673
@<TRIPOS>BOND
     1     5     4    1
     2     5     6    1
     3     6     7    1
     4     7    11    1
     5    11    12    1
     6    12    15    1
     7    15    16   am
     8    15    17    2
     9    12    13    1
    10    13    14    1
    11     7     8    1
    12     8     9    1
    13     9    10    1
    14    10     1    1
    15     1     2    2
    16     1     3    2
    17     1    20    1
    18    20    21   ar
    19    21    22   ar
    20    22    23   ar
    21    23    26    1
    22    26    27    1
    23    26    28    1
    24    26    30    1
    25    30    31    1
    26    30    32    1
    27    30    33    1
    28    23    24   ar
    29    24    25   ar
    30    10     5    1
    31    25    20   ar
    32    14    12    1
    33    16    18    1
    34    16    19    1
    35    28    29    1
@<TRIPOS>MOLECULE
*****
 33 35 0 0 0
SMALL
GASTEIGER

@<TRIPOS>ATOM
      1 S         141.7396  143.3212  163.9116 S.O2    1  UNL1        0.0633
      2 O         142.6914  144.4237  164.2698 O.2     1  UNL1       -0.1528
      3 O         140.7878  142.2186  163.5534 O.2     1  UNL1       -0.1528
      4 C         139.7237  145.2884  162.8789 C.3     1  UNL1        0.0206
      5 C         140.7722  144.7363  161.9592 C.3     1  UNL1        0.0956
      6 C         140.8128  145.1679  160.5233 C.3     1  UNL1        0.0900
      7 N         141.8613  144.6158  159.6036 N.3     1  UNL1       -0.2698
      8 C         142.8693  143.6323  160.1198 C.3     1  UNL1        0.0915
      9 C         142.8287  143.2007  161.5558 C.3     1  UNL1        0.1131
     10 N         141.7801  143.7528  162.4755 N.3     1  UNL1       -0.1541
     11 C         141.9019  145.0474  158.1675 C.3     1  UNL1        0.0807
     12 C         140.7075  144.8327  157.2858 C.3     1  UNL1        0.0833
     13 C         139.5316  145.1386  156.4062 C.3     1  UNL1        0.0105
     14 C         140.3459  146.2571  156.9856 C.3     1  UNL1        0.0105
     15 C         140.6543  143.3336  157.2799 C.2     1  UNL1        0.2198
     16 N         139.7306  142.6122  158.2160 N.am    1  UNL1       -0.3288
     17 O         141.5248  142.5560  156.3378 O.2     1  UNL1       -0.2753
     18 H         139.1593  143.1226  158.8343 H       1  UNL1        0.1449
     19 H         139.6957  141.6284  158.2121 H       1  UNL1        0.1449
     20 C         141.6990  142.8896  165.3475 C.ar    1  UNL1        0.1222
     21 C         142.9671  142.5083  166.0522 C.ar    1  UNL1        0.0197
     22 C         142.9266  142.0768  167.4882 C.ar    1  UNL1       -0.0004
     23 C         141.6179  142.0265  168.2196 C.ar    1  UNL1        0.0099
     24 C         140.3498  142.4079  167.5150 C.ar    1  UNL1       -0.0004
     25 C         140.3904  142.8394  166.0790 C.ar    1  UNL1        0.0197
     26 C         141.5774  141.5950  169.6556 C.3     1  UNL1        0.1945
     27 C         141.5368  141.1635  171.0916 C.3     1  UNL1        0.0428
     28 O         142.3785  140.3745  169.3114 O.3     1  UNL1       -0.3751
     29 H         142.5759  140.3745  168.3617 H       1  UNL1        0.2110
     30 C         140.7763  142.8156  169.9998 C.3     1  UNL1        0.4230
     31 F         139.9752  144.0362  170.3439 F       1  UNL1       -0.1673
     32 F         141.7800  143.9298  169.9665 F       1  UNL1       -0.1673
     33 F         139.5420  141.9716  170.1199 F       1  UNL1       -0.1673
@<TRIPOS>BOND
     1     5     4    1
     2     5     6    1
     3     6     7    1
     4     7    11    1
     5    11    12    1
     6    12    15    1
     7    15    16   am
     8    15    17    2
     9    12    13    1
    10    13    14    1
    11     7     8    1
    12     8     9    1
    13     9    10    1
    14    10     1    1
    15     1     2    2
    16     1     3    2
    17     1    20    1
    18    20    21   ar
    19    21    22   ar
    20    22    23   ar
    21    23    26    1
    22    26    27    1
    23    26    28    1
    24    26    30    1
    25    30    31    1
    26    30    32    1
    27    30    33    1
    28    23    24   ar
    29    24    25   ar
    30    10     5    1
    31    25    20   ar
    32    14    12    1
    33    16    18    1
    34    16    19    1
    35    28    29    1
@<TRIPOS>MOLECULE
*****
 33 35 0 0 0
SMALL
GASTEIGER

@<TRIPOS>ATOM
      1 S         140.7105  138.8005  162.3417 S.O2    1  UNL1        0.0633
      2 O         141.2784  140.1794  162.1803 O.2     1  UNL1       -0.1528
      3 O         140.1426  137.4216  162.5031 O.2     1  UNL1       -0.1528
      4 C         138.6817  139.3393  160.1984 C.3     1  UNL1        0.0206
      5 C         140.0209  138.7684  159.8370 C.3     1  UNL1        0.0956
      6 C         140.3458  138.4670  158.4040 C.3     1  UNL1        0.0900
      7 N         141.6850  137.8961  158.0427 N.3     1  UNL1       -0.2698
      8 C         142.6994  137.6267  159.1143 C.3     1  UNL1        0.0915
      9 C         142.3745  137.9282  160.5473 C.3     1  UNL1        0.1131
     10 N         141.0353  138.4991  160.9087 N.3     1  UNL1       -0.1541
     11 C         142.0099  137.5946  156.6096 C.3     1  UNL1        0.0807
     12 C         143.3425  137.9874  156.0440 C.3     1  UNL1        0.0833
     13 C         144.6706  137.8737  155.3562 C.3     1  UNL1        0.0105
     14 C         143.7925  136.6657  155.4957 C.3     1  UNL1        0.0105
     15 C         143.3553  139.4455  156.3959 C.2     1  UNL1        0.2198
     16 N         142.2264  140.3320  155.9605 N.am    1  UNL1       -0.3288
     17 O         144.4971  140.0170  157.1832 O.2     1  UNL1       -0.2753
     18 H         141.4771  139.9569  155.4438 H       1  UNL1        0.1449
     19 H         142.2349  141.2890  156.1915 H       1  UNL1        0.1449
     20 C         140.3857  139.1020  163.7748 C.ar    1  UNL1        0.1222
     21 C         141.4662  139.0572  164.8142 C.ar    1  UNL1        0.0197
     22 C         141.1414  139.3587  166.2472 C.ar    1  UNL1       -0.0004
     23 C         139.7360  139.7051  166.6408 C.ar    1  UNL1        0.0099
     24 C         138.6555  139.7500  165.6014 C.ar    1  UNL1       -0.0004
     25 C         138.9803  139.4485  164.1684 C.ar    1  UNL1        0.0197
     26 C         139.4112  140.0066  168.0738 C.3     1  UNL1        0.1945
     27 C         139.0864  140.3081  169.5069 C.3     1  UNL1        0.0428
     28 O         138.2780  139.0252  168.0235 O.3     1  UNL1       -0.3751
     29 H         138.2317  138.6298  167.1389 H       1  UNL1        0.2110
     30 C         140.5444  140.9880  168.1242 C.3     1  UNL1        0.4230
     31 F         141.6777  141.9695  168.1745 F       1  UNL1       -0.1673
     32 F         140.1180  142.0831  167.1921 F       1  UNL1       -0.1673
     33 F         141.2667  140.1041  169.0975 F       1  UNL1       -0.1673
@<TRIPOS>BOND
     1     5     4    1
     2     5     6    1
     3     6     7    1
     4     7    11    1
     5    11    12    1
     6    12    15    1
     7    15    16   am
     8    15    17    2
     9    12    13    1
    10    13    14    1
    11     7     8    1
    12     8     9    1
    13     9    10    1
    14    10     1    1
    15     1     2    2
    16     1     3    2
    17     1    20    1
    18    20    21   ar
    19    21    22   ar
    20    22    23   ar
    21    23    26    1
    22    26    27    1
    23    26    28    1
    24    26    30    1
    25    30    31    1
    26    30    32    1
    27    30    33    1
    28    23    24   ar
    29    24    25   ar
    30    10     5    1
    31    25    20   ar
    32    14    12    1
    33    16    18    1
    34    16    19    1
    35    28    29    1
@<TRIPOS>MOLECULE
*****
 33 35 0 0 0
SMALL
GASTEIGER

@<TRIPOS>ATOM
      1 S         139.2734  141.1479  164.1490 S.O2    1  UNL1        0.0633
      2 O         137.8579  141.4983  164.5005 O.2     1  UNL1       -0.1528
      3 O         140.6889  140.7974  163.7975 O.2     1  UNL1       -0.1528
      4 C         138.4840  138.4618  163.0711 C.3     1  UNL1        0.0206
      5 C         138.4853  139.6607  162.1697 C.3     1  UNL1        0.0956
      6 C         138.0919  139.5167  160.7294 C.3     1  UNL1        0.0900
      7 N         138.0932  140.7157  159.8281 N.3     1  UNL1       -0.2698
      8 C         138.4879  142.0587  160.3670 C.3     1  UNL1        0.0915
      9 C         138.8813  142.2027  161.8073 C.3     1  UNL1        0.1131
     10 N         138.8800  141.0038  162.7086 N.3     1  UNL1       -0.1541
     11 C         137.6998  140.5716  158.3877 C.3     1  UNL1        0.0807
     12 C         138.7239  140.7599  157.3081 C.3     1  UNL1        0.0833
     13 C         139.4262  141.3427  156.1176 C.3     1  UNL1        0.0105
     14 C         138.1529  141.9608  156.6140 C.3     1  UNL1        0.0105
     15 C         139.6507  139.6245  157.6272 C.2     1  UNL1        0.2198
     16 N         140.9120  139.8798  158.3978 N.am    1  UNL1       -0.3288
     17 O         139.3161  138.2337  157.1757 O.2     1  UNL1       -0.2753
     18 H         141.1316  140.7926  158.6941 H       1  UNL1        0.1449
     19 H         141.5203  139.1345  158.6072 H       1  UNL1        0.1449
     20 C         139.6668  141.2920  165.5893 C.ar    1  UNL1        0.1222
     21 C         140.1840  142.6049  166.0978 C.ar    1  UNL1        0.0197
     22 C         140.5773  142.7490  167.5381 C.ar    1  UNL1       -0.0004
     23 C         140.4535  141.5801  168.4699 C.ar    1  UNL1        0.0099
     24 C         139.9362  140.2671  167.9615 C.ar    1  UNL1       -0.0004
     25 C         139.5429  140.1230  166.5212 C.ar    1  UNL1        0.0197
     26 C         140.8468  141.7242  169.9102 C.3     1  UNL1        0.1945
     27 C         141.2402  141.8683  171.3506 C.3     1  UNL1        0.0428
     28 O         139.4744  141.2871  170.3288 O.3     1  UNL1       -0.3751
     29 H         138.9387  141.1050  169.5409 H       1  UNL1        0.2110
     30 C         142.2193  142.1614  169.4917 C.3     1  UNL1        0.4230
     31 F         143.5918  142.5985  169.0731 F       1  UNL1       -0.1673
     32 F         142.8282  140.9261  168.8973 F       1  UNL1       -0.1673
     33 F         141.9340  143.5436  169.9999 F       1  UNL1       -0.1673
@<TRIPOS>BOND
     1     5     4    1
     2     5     6    1
     3     6     7    1
     4     7    11    1
     5    11    12    1
     6    12    15    1
     7    15    16   am
     8    15    17    2
     9    12    13    1
    10    13    14    1
    11     7     8    1
    12     8     9    1
    13     9    10    1
    14    10     1    1
    15     1     2    2
    16     1     3    2
    17     1    20    1
    18    20    21   ar
    19    21    22   ar
    20    22    23   ar
    21    23    26    1
    22    26    27    1
    23    26    28    1
    24    26    30    1
    25    30    31    1
    26    30    32    1
    27    30    33    1
    28    23    24   ar
    29    24    25   ar
    30    10     5    1
    31    25    20   ar
    32    14    12    1
    33    16    18    1
    34    16    19    1
    35    28    29    1
