@<TRIPOS>MOLECULE
*****
 30 33 0 0 0
SMALL
GASTEIGER

@<TRIPOS>ATOM
      1 C         139.3187  140.0396  166.0390 C.ar    1  UNL1        0.1377
      2 C         140.4637  139.2435  165.4867 C.ar    1  UNL1        0.0686
      3 C         141.7333  139.1099  166.2743 C.ar    1  UNL1        0.1344
      4 N         141.8578  139.7725  167.6142 N.ar    1  UNL1       -0.1980
      5 N         142.9772  139.8170  168.6118 N.ar    1  UNL1       -0.1602
      6 C         142.5239  140.6406  169.7806 C.ar    1  UNL1        0.1339
      7 C         141.1244  141.1052  169.5054 C.ar    1  UNL1        0.1250
      8 C         140.7128  140.5686  168.1665 C.ar    1  UNL1        0.1776
      9 N         139.4432  140.7022  167.3789 N.ar    1  UNL1       -0.2109
     10 N         138.0491  140.1731  165.2514 N.pl3   1  UNL1       -0.2832
     11 H         137.1899  139.9109  165.6543 H       1  UNL1        0.1550
     12 C         138.2263  142.7172  162.2105 C.ar    1  UNL1        0.0506
     13 C         138.1868  142.1840  163.6119 C.ar    1  UNL1        0.0488
     14 C         138.0885  140.7063  163.8499 C.ar    1  UNL1        0.1344
     15 N         138.0298  139.7616  162.6862 N.ar    1  UNL1       -0.2293
     16 C         138.0693  140.2947  161.2846 C.ar    1  UNL1        0.0972
     17 C         138.1675  141.7724  161.0468 C.ar    1  UNL1        0.0109
     18 C         138.2070  142.3055  159.6453 C.3     1  UNL1        0.0340
     19 C         139.7631  146.3461  161.7429 C.3     1  UNL1        0.0949
     20 C         139.6648  144.8683  161.9807 C.2     1  UNL1        0.2266
     21 O         140.9068  144.0641  162.2265 O.2     1  UNL1       -0.2748
     22 N         138.3245  144.1949  161.9726 N.am    1  UNL1       -0.2840
     23 H         137.5093  144.7228  161.8113 H       1  UNL1        0.1548
     24 N         142.8783  138.3137  165.7219 N.pl3   1  UNL1       -0.3196
     25 H         143.0396  137.3965  166.0413 H       1  UNL1        0.1481
     26 C         143.7777  138.9150  164.6829 C.3     1  UNL1        0.0705
     27 C         144.9573  139.7686  164.3225 C.3     1  UNL1        0.0212
     28 C         144.1558  139.1027  163.2435 C.3     1  UNL1        0.0212
     29 C         140.2842  141.9567  170.4103 C.1     1  UNL1        0.1052
     30 N         139.4440  142.8083  171.3152 N.1     1  UNL1       -0.1907
@<TRIPOS>BOND
     1    19    20    1
     2    20    21    2
     3    20    22   am
     4    22    12    1
     5    12    13   ar
     6    13    14   ar
     7    14    10    1
     8    10     1    1
     9     1     2   ar
    10     2     3   ar
    11     3    24    1
    12    24    26    1
    13    26    27    1
    14    27    28    1
    15     3     4   ar
    16     4     5   ar
    17     5     6   ar
    18     6     7   ar
    19     7    29    1
    20    29    30    3
    21     7     8   ar
    22     8     9   ar
    23    14    15   ar
    24    15    16   ar
    25    16    17   ar
    26    17    18    1
    27    17    12   ar
    28     9     1   ar
    29    28    26    1
    30     8     4   ar
    31    22    23    1
    32    10    11    1
    33    24    25    1
@<TRIPOS>MOLECULE
*****
 30 33 0 0 0
SMALL
GASTEIGER

@<TRIPOS>ATOM
      1 C         139.6933  140.7855  166.1929 C.ar    1  UNL1        0.1377
      2 C         140.6059  139.8476  165.4600 C.ar    1  UNL1        0.0686
      3 C         141.7575  139.2078  166.1775 C.ar    1  UNL1        0.1344
      4 N         141.9963  139.5062  167.6280 N.ar    1  UNL1       -0.1980
      5 N         143.0418  139.0289  168.5919 N.ar    1  UNL1       -0.1602
      6 C         142.7752  139.6720  169.9206 C.ar    1  UNL1        0.1339
      7 C         141.5650  140.5467  169.7779 C.ar    1  UNL1        0.1250
      8 C         141.0836  140.4442  168.3609 C.ar    1  UNL1        0.1776
      9 N         139.9321  141.0839  167.6434 N.ar    1  UNL1       -0.2109
     10 N         138.5418  141.4252  165.4754 N.pl3   1  UNL1       -0.2832
     11 H         137.6328  141.0623  165.5815 H       1  UNL1        0.1550
     12 C         140.3028  144.5643  163.8034 C.ar    1  UNL1        0.0506
     13 C         140.0693  143.3717  164.6826 C.ar    1  UNL1        0.0488
     14 C         138.7753  142.6179  164.5961 C.ar    1  UNL1        0.1344
     15 N         137.7148  143.0568  163.6304 N.ar    1  UNL1       -0.2293
     16 C         137.9483  144.2495  162.7511 C.ar    1  UNL1        0.0972
     17 C         139.2422  145.0032  162.8376 C.ar    1  UNL1        0.0109
     18 C         139.4757  146.1958  161.9584 C.3     1  UNL1        0.0340
     19 C         144.1435  145.4796  163.4015 C.3     1  UNL1        0.0949
     20 C         142.8494  144.7259  163.3150 C.2     1  UNL1        0.2266
     21 O         142.8080  143.3803  162.6536 O.2     1  UNL1       -0.2748
     22 N         141.5968  145.3180  163.8899 N.am    1  UNL1       -0.2840
     23 H         141.6240  146.2012  164.3240 H       1  UNL1        0.1548
     24 N         142.6701  138.2698  165.4445 N.pl3   1  UNL1       -0.3196
     25 H         142.6048  137.2995  165.5976 H       1  UNL1        0.1481
     26 C         143.6822  138.8102  164.4783 C.3     1  UNL1        0.0705
     27 C         144.9466  139.5721  164.2121 C.3     1  UNL1        0.0212
     28 C         144.1708  138.9843  163.0709 C.3     1  UNL1        0.0212
     29 C         140.9451  141.3779  170.8618 C.1     1  UNL1        0.1052
     30 N         140.3252  142.2090  171.9457 N.1     1  UNL1       -0.1907
@<TRIPOS>BOND
     1    19    20    1
     2    20    21    2
     3    20    22   am
     4    22    12    1
     5    12    13   ar
     6    13    14   ar
     7    14    10    1
     8    10     1    1
     9     1     2   ar
    10     2     3   ar
    11     3    24    1
    12    24    26    1
    13    26    27    1
    14    27    28    1
    15     3     4   ar
    16     4     5   ar
    17     5     6   ar
    18     6     7   ar
    19     7    29    1
    20    29    30    3
    21     7     8   ar
    22     8     9   ar
    23    14    15   ar
    24    15    16   ar
    25    16    17   ar
    26    17    18    1
    27    17    12   ar
    28     9     1   ar
    29    28    26    1
    30     8     4   ar
    31    22    23    1
    32    10    11    1
    33    24    25    1
@<TRIPOS>MOLECULE
*****
 30 33 0 0 0
SMALL
GASTEIGER

@<TRIPOS>ATOM
      1 C         143.2692  143.8257  162.4468 C.ar    1  UNL1        0.1377
      2 C         142.1691  144.5306  163.1833 C.ar    1  UNL1        0.0686
      3 C         141.0099  145.1083  162.4265 C.ar    1  UNL1        0.1344
      4 N         140.9510  144.9809  160.9331 N.ar    1  UNL1       -0.1980
      5 N         139.9422  145.4460  159.9251 N.ar    1  UNL1       -0.1602
      6 C         140.4190  145.0285  158.5656 C.ar    1  UNL1        0.1339
      7 C         141.7225  144.3053  158.7333 C.ar    1  UNL1        0.1250
      8 C         142.0513  144.2759  160.1966 C.ar    1  UNL1        0.1776
      9 N         143.2104  143.6983  160.9534 N.ar    1  UNL1       -0.2109
     10 N         144.4284  143.2480  163.2037 N.pl3   1  UNL1       -0.2832
     11 H         145.2985  143.7086  163.1982 H       1  UNL1        0.1550
     12 C         143.1256  140.6194  165.8764 C.ar    1  UNL1        0.0506
     13 C         143.2922  141.8988  165.1113 C.ar    1  UNL1        0.0488
     14 C         144.2617  141.9687  163.9688 C.ar    1  UNL1        0.1344
     15 N         145.0645  140.7591  163.5914 N.ar    1  UNL1       -0.2293
     16 C         144.8979  139.4796  164.3566 C.ar    1  UNL1        0.0972
     17 C         143.9284  139.4098  165.4990 C.ar    1  UNL1        0.0109
     18 C         143.7618  138.1305  166.2641 C.3     1  UNL1        0.0340
     19 C         139.7663  140.0644  167.9154 C.3     1  UNL1        0.0949
     20 C         140.7359  140.1343  166.7730 C.2     1  UNL1        0.2266
     21 O         140.2852  139.7887  165.3847 O.2     1  UNL1       -0.2748
     22 N         142.1561  140.5496  167.0189 N.am    1  UNL1       -0.2840
     23 H         142.4519  140.7765  167.9301 H       1  UNL1        0.1548
     24 N         139.9097  145.8133  163.1631 N.pl3   1  UNL1       -0.3196
     25 H         139.7613  146.7763  163.0223 H       1  UNL1        0.1481
     26 C         139.0356  145.0510  164.1143 C.3     1  UNL1        0.0705
     27 C         137.9964  143.9986  164.3646 C.3     1  UNL1        0.0212
     28 C         138.5606  144.7832  165.5117 C.3     1  UNL1        0.0212
     29 C         142.5515  143.7152  157.6313 C.1     1  UNL1        0.1052
     30 N         143.3805  143.1250  156.5293 N.1     1  UNL1       -0.1907
@<TRIPOS>BOND
     1    19    20    1
     2    20    21    2
     3    20    22   am
     4    22    12    1
     5    12    13   ar
     6    13    14   ar
     7    14    10    1
     8    10     1    1
     9     1     2   ar
    10     2     3   ar
    11     3    24    1
    12    24    26    1
    13    26    27    1
    14    27    28    1
    15     3     4   ar
    16     4     5   ar
    17     5     6   ar
    18     6     7   ar
    19     7    29    1
    20    29    30    3
    21     7     8   ar
    22     8     9   ar
    23    14    15   ar
    24    15    16   ar
    25    16    17   ar
    26    17    18    1
    27    17    12   ar
    28     9     1   ar
    29    28    26    1
    30     8     4   ar
    31    22    23    1
    32    10    11    1
    33    24    25    1
@<TRIPOS>MOLECULE
*****
 30 33 0 0 0
SMALL
GASTEIGER

@<TRIPOS>ATOM
      1 C         138.7074  143.2644  161.7393 C.ar    1  UNL1        0.1377
      2 C         139.7454  144.0189  162.5158 C.ar    1  UNL1        0.0686
      3 C         140.8100  144.7896  161.7927 C.ar    1  UNL1        0.1344
      4 N         140.8364  144.8057  160.2931 N.ar    1  UNL1       -0.1980
      5 N         141.7562  145.4709  159.3126 N.ar    1  UNL1       -0.1602
      6 C         141.2866  145.1275  157.9300 C.ar    1  UNL1        0.1339
      7 C         140.0766  144.2500  158.0560 C.ar    1  UNL1        0.1250
      8 C         139.7983  144.0512  159.5165 C.ar    1  UNL1        0.1776
      9 N         138.7338  143.2805  160.2396 N.ar    1  UNL1       -0.2109
     10 N         137.6428  142.4936  162.4624 N.pl3   1  UNL1       -0.2832
     11 H         136.7224  142.8412  162.4990 H       1  UNL1        0.1550
     12 C         138.4608  139.8304  165.2887 C.ar    1  UNL1        0.0506
     13 C         138.1230  141.1306  164.6215 C.ar    1  UNL1        0.0488
     14 C         137.9807  141.1934  163.1296 C.ar    1  UNL1        0.1344
     15 N         138.1763  139.9558  162.3049 N.ar    1  UNL1       -0.2293
     16 C         138.5141  138.6555  162.9721 C.ar    1  UNL1        0.0972
     17 C         138.6564  138.5928  164.4639 C.ar    1  UNL1        0.0109
     18 C         138.9943  137.2925  165.1312 C.3     1  UNL1        0.0340
     19 C         140.0403  140.0983  168.9196 C.3     1  UNL1        0.0949
     20 C         139.8979  140.1610  167.4277 C.2     1  UNL1        0.2266
     21 O         141.0505  140.6169  166.5829 O.2     1  UNL1       -0.2748
     22 N         138.6031  139.7677  166.7807 N.am    1  UNL1       -0.2840
     23 H         137.8466  139.4685  167.3352 H       1  UNL1        0.1548
     24 N         141.8480  145.5441  162.5694 N.pl3   1  UNL1       -0.3196
     25 H         141.7411  146.5105  162.7242 H       1  UNL1        0.1481
     26 C         143.0490  144.8263  163.1102 C.3     1  UNL1        0.0705
     27 C         144.3042  144.0381  162.8797 C.3     1  UNL1        0.0212
     28 C         143.8737  144.3712  164.2775 C.3     1  UNL1        0.0212
     29 C         139.2840  143.6728  156.9209 C.1     1  UNL1        0.1052
     30 N         138.4914  143.0956  155.7857 N.1     1  UNL1       -0.1907
@<TRIPOS>BOND
     1    19    20    1
     2    20    21    2
     3    20    22   am
     4    22    12    1
     5    12    13   ar
     6    13    14   ar
     7    14    10    1
     8    10     1    1
     9     1     2   ar
    10     2     3   ar
    11     3    24    1
    12    24    26    1
    13    26    27    1
    14    27    28    1
    15     3     4   ar
    16     4     5   ar
    17     5     6   ar
    18     6     7   ar
    19     7    29    1
    20    29    30    3
    21     7     8   ar
    22     8     9   ar
    23    14    15   ar
    24    15    16   ar
    25    16    17   ar
    26    17    18    1
    27    17    12   ar
    28     9     1   ar
    29    28    26    1
    30     8     4   ar
    31    22    23    1
    32    10    11    1
    33    24    25    1
@<TRIPOS>MOLECULE
*****
 30 33 0 0 0
SMALL
GASTEIGER

@<TRIPOS>ATOM
      1 C         138.4901  139.8247  162.6369 C.ar    1  UNL1        0.1377
      2 C         138.1576  141.2223  163.0680 C.ar    1  UNL1        0.0686
      3 C         138.0484  142.3162  162.0474 C.ar    1  UNL1        0.1344
      4 N         138.2717  142.0123  160.5956 N.ar    1  UNL1       -0.1980
      5 N         138.2316  142.8780  159.3713 N.ar    1  UNL1       -0.1602
      6 C         138.5394  142.0153  158.1834 C.ar    1  UNL1        0.1339
      7 C         138.7697  140.6164  158.6736 C.ar    1  UNL1        0.1250
      8 C         138.6043  140.6146  160.1644 C.ar    1  UNL1        0.1776
      9 N         138.7134  139.5208  161.1851 N.ar    1  UNL1       -0.2109
     10 N         138.5993  138.7308  163.6575 N.pl3   1  UNL1       -0.2832
     11 H         138.5168  137.7895  163.3810 H       1  UNL1        0.1550
     12 C         140.4079  139.9246  166.9823 C.ar    1  UNL1        0.0506
     13 C         140.1730  139.5843  165.5404 C.ar    1  UNL1        0.0488
     14 C         138.8342  139.0712  165.0993 C.ar    1  UNL1        0.1344
     15 N         137.7304  138.8985  166.1002 N.ar    1  UNL1       -0.2293
     16 C         137.9653  139.2388  167.5421 C.ar    1  UNL1        0.0972
     17 C         139.3040  139.7519  167.9831 C.ar    1  UNL1        0.0109
     18 C         139.5389  140.0922  169.4250 C.3     1  UNL1        0.0340
     19 C         143.3224  142.4277  167.9773 C.3     1  UNL1        0.0949
     20 C         141.9837  141.9145  167.5363 C.2     1  UNL1        0.2266
     21 O         140.8820  142.8782  167.2084 O.2     1  UNL1       -0.2748
     22 N         141.7467  140.4377  167.4233 N.am    1  UNL1       -0.2840
     23 H         142.4697  139.8052  167.6385 H       1  UNL1        0.1548
     24 N         137.7158  143.7139  162.4787 N.pl3   1  UNL1       -0.3196
     25 H         137.0822  144.2536  161.9529 H       1  UNL1        0.1481
     26 C         138.3486  144.2891  163.7110 C.3     1  UNL1        0.0705
     27 C         138.2535  144.6936  165.1523 C.3     1  UNL1        0.0212
     28 C         139.5400  144.8810  164.4040 C.3     1  UNL1        0.0212
     29 C         139.1063  139.4281  157.8224 C.1     1  UNL1        0.1052
     30 N         139.4430  138.2398  156.9711 N.1     1  UNL1       -0.1907
@<TRIPOS>BOND
     1    19    20    1
     2    20    21    2
     3    20    22   am
     4    22    12    1
     5    12    13   ar
     6    13    14   ar
     7    14    10    1
     8    10     1    1
     9     1     2   ar
    10     2     3   ar
    11     3    24    1
    12    24    26    1
    13    26    27    1
    14    27    28    1
    15     3     4   ar
    16     4     5   ar
    17     5     6   ar
    18     6     7   ar
    19     7    29    1
    20    29    30    3
    21     7     8   ar
    22     8     9   ar
    23    14    15   ar
    24    15    16   ar
    25    16    17   ar
    26    17    18    1
    27    17    12   ar
    28     9     1   ar
    29    28    26    1
    30     8     4   ar
    31    22    23    1
    32    10    11    1
    33    24    25    1
@<TRIPOS>MOLECULE
*****
 30 33 0 0 0
SMALL
GASTEIGER

@<TRIPOS>ATOM
      1 C         140.4439  145.3262  157.7058 C.ar    1  UNL1        0.1377
      2 C         140.2957  146.4310  156.7022 C.ar    1  UNL1        0.0686
      3 C         139.2679  146.3236  155.6148 C.ar    1  UNL1        0.1344
      4 N         138.3885  145.1113  155.5311 N.ar    1  UNL1       -0.1980
      5 N         137.2955  144.7282  154.5779 N.ar    1  UNL1       -0.1602
      6 C         136.7683  143.3865  154.9925 C.ar    1  UNL1        0.1339
      7 C         137.5354  142.9405  156.2019 C.ar    1  UNL1        0.1250
      8 C         138.5368  144.0065  156.5348 C.ar    1  UNL1        0.1776
      9 N         139.5644  144.1139  157.6221 N.ar    1  UNL1       -0.2109
     10 N         141.4716  145.4335  158.7932 N.pl3   1  UNL1       -0.2832
     11 H         142.4074  145.6396  158.5675 H       1  UNL1        0.1550
     12 C         141.5282  144.1784  162.5578 C.ar    1  UNL1        0.0506
     13 C         141.9265  144.3851  161.1265 C.ar    1  UNL1        0.0488
     14 C         141.0733  145.2269  160.2245 C.ar    1  UNL1        0.1344
     15 N         139.8218  145.8620  160.7539 N.ar    1  UNL1       -0.2293
     16 C         139.4235  145.6553  162.1853 C.ar    1  UNL1        0.0972
     17 C         140.2766  144.8136  163.0872 C.ar    1  UNL1        0.0109
     18 C         139.8784  144.6069  164.5185 C.3     1  UNL1        0.0340
     19 C         144.3705  143.1190  165.1169 C.3     1  UNL1        0.0949
     20 C         143.5172  143.9607  164.2150 C.2     1  UNL1        0.2266
     21 O         143.7997  145.4266  164.0685 O.2     1  UNL1       -0.2748
     22 N         142.3815  143.3366  163.4597 N.am    1  UNL1       -0.2840
     23 H         142.1961  142.3745  163.5558 H       1  UNL1        0.1548
     24 N         139.1198  147.4285  154.6111 N.pl3   1  UNL1       -0.3196
     25 H         139.1059  147.2209  153.6489 H       1  UNL1        0.1481
     26 C         138.9928  148.8497  155.0736 C.3     1  UNL1        0.0705
     27 C         139.3108  150.3054  154.9008 C.3     1  UNL1        0.0212
     28 C         138.4548  149.8557  156.0475 C.3     1  UNL1        0.0212
     29 C         137.3361  141.6543  156.9475 C.1     1  UNL1        0.1052
     30 N         137.1367  140.3680  157.6931 N.1     1  UNL1       -0.1907
@<TRIPOS>BOND
     1    19    20    1
     2    20    21    2
     3    20    22   am
     4    22    12    1
     5    12    13   ar
     6    13    14   ar
     7    14    10    1
     8    10     1    1
     9     1     2   ar
    10     2     3   ar
    11     3    24    1
    12    24    26    1
    13    26    27    1
    14    27    28    1
    15     3     4   ar
    16     4     5   ar
    17     5     6   ar
    18     6     7   ar
    19     7    29    1
    20    29    30    3
    21     7     8   ar
    22     8     9   ar
    23    14    15   ar
    24    15    16   ar
    25    16    17   ar
    26    17    18    1
    27    17    12   ar
    28     9     1   ar
    29    28    26    1
    30     8     4   ar
    31    22    23    1
    32    10    11    1
    33    24    25    1
@<TRIPOS>MOLECULE
*****
 30 33 0 0 0
SMALL
GASTEIGER

@<TRIPOS>ATOM
      1 C         143.0667  140.9926  165.6273 C.ar    1  UNL1        0.1377
      2 C         142.0208  140.0026  165.2084 C.ar    1  UNL1        0.0686
      3 C         140.8904  139.6680  166.1360 C.ar    1  UNL1        0.1344
      4 N         140.8060  140.3236  167.4825 N.ar    1  UNL1       -0.1980
      5 N         139.8158  140.1940  168.6017 N.ar    1  UNL1       -0.1602
      6 C         140.2499  141.1040  169.7123 C.ar    1  UNL1        0.1339
      7 C         141.5083  141.7961  169.2795 C.ar    1  UNL1        0.1250
      8 C         141.8521  141.3138  167.9014 C.ar    1  UNL1        0.1776
      9 N         142.9824  141.6483  166.9738 N.ar    1  UNL1       -0.2109
     10 N         144.1972  141.3272  164.6997 N.pl3   1  UNL1       -0.2832
     11 H         145.1284  141.1982  164.9920 H       1  UNL1        0.1550
     12 C         142.8584  143.6711  161.7904 C.ar    1  UNL1        0.0506
     13 C         143.1469  143.1401  163.1632 C.ar    1  UNL1        0.0488
     14 C         143.9086  141.8582  163.3269 C.ar    1  UNL1        0.1344
     15 N         144.3818  141.1074  162.1176 N.ar    1  UNL1       -0.2293
     16 C         144.0933  141.6385  160.7446 C.ar    1  UNL1        0.0972
     17 C         143.3316  142.9202  160.5811 C.ar    1  UNL1        0.0109
     18 C         143.0431  143.4513  159.2082 C.3     1  UNL1        0.0340
     19 C         139.8384  146.2361  161.5661 C.3     1  UNL1        0.0949
     20 C         140.6002  144.9543  161.7297 C.2     1  UNL1        0.2266
     21 O         139.8655  143.6740  161.9960 O.2     1  UNL1       -0.2748
     22 N         142.0967  144.9529  161.6268 N.am    1  UNL1       -0.2840
     23 H         142.5789  145.7932  161.4520 H       1  UNL1        0.1548
     24 N         139.8444  138.6778  165.7170 N.pl3   1  UNL1       -0.3196
     25 H         139.0982  138.4640  166.3227 H       1  UNL1        0.1481
     26 C         139.9352  138.0134  164.3753 C.3     1  UNL1        0.0705
     27 C         140.7168  137.2260  163.3658 C.3     1  UNL1        0.0212
     28 C         139.3107  137.6501  163.0607 C.3     1  UNL1        0.0212
     29 C         142.2864  142.7951  170.0836 C.1     1  UNL1        0.1052
     30 N         143.0645  143.7940  170.8878 N.1     1  UNL1       -0.1907
@<TRIPOS>BOND
     1    19    20    1
     2    20    21    2
     3    20    22   am
     4    22    12    1
     5    12    13   ar
     6    13    14   ar
     7    14    10    1
     8    10     1    1
     9     1     2   ar
    10     2     3   ar
    11     3    24    1
    12    24    26    1
    13    26    27    1
    14    27    28    1
    15     3     4   ar
    16     4     5   ar
    17     5     6   ar
    18     6     7   ar
    19     7    29    1
    20    29    30    3
    21     7     8   ar
    22     8     9   ar
    23    14    15   ar
    24    15    16   ar
    25    16    17   ar
    26    17    18    1
    27    17    12   ar
    28     9     1   ar
    29    28    26    1
    30     8     4   ar
    31    22    23    1
    32    10    11    1
    33    24    25    1
@<TRIPOS>MOLECULE
*****
 30 33 0 0 0
SMALL
GASTEIGER

@<TRIPOS>ATOM
      1 C         142.3678  140.9384  166.0491 C.ar    1  UNL1        0.1377
      2 C         142.0418  141.2013  167.4894 C.ar    1  UNL1        0.0686
      3 C         140.7806  140.6499  168.0857 C.ar    1  UNL1        0.1344
      4 N         139.8455  139.8357  167.2416 N.ar    1  UNL1       -0.1980
      5 N         138.5387  139.1671  167.5506 N.ar    1  UNL1       -0.1602
      6 C         138.0572  138.4910  166.3012 C.ar    1  UNL1        0.1339
      7 C         139.0663  138.7417  165.2200 C.ar    1  UNL1        0.1250
      8 C         140.1715  139.5728  165.8012 C.ar    1  UNL1        0.1776
      9 N         141.4327  140.1241  165.2050 N.ar    1  UNL1       -0.2109
     10 N         143.6290  141.4897  165.4528 N.pl3   1  UNL1       -0.2832
     11 H         144.4182  141.6394  166.0220 H       1  UNL1        0.1550
     12 C         143.0626  143.3635  162.0005 C.ar    1  UNL1        0.0506
     13 C         143.0039  143.0404  163.4641 C.ar    1  UNL1        0.0488
     14 C         143.6877  141.8128  163.9892 C.ar    1  UNL1        0.1344
     15 N         144.4301  140.9084  163.0507 N.ar    1  UNL1       -0.2293
     16 C         144.4888  141.2316  161.5870 C.ar    1  UNL1        0.0972
     17 C         143.8051  142.4591  161.0619 C.ar    1  UNL1        0.0109
     18 C         143.8638  142.7822  159.5984 C.3     1  UNL1        0.0340
     19 C         140.2305  145.7815  160.6285 C.3     1  UNL1        0.0949
     20 C         140.9143  144.5540  161.1535 C.2     1  UNL1        0.2266
     21 O         140.1335  143.2895  161.3566 O.2     1  UNL1       -0.2748
     22 N         142.3789  144.5911  161.4754 N.am    1  UNL1       -0.2840
     23 H         142.8914  145.4210  161.3421 H       1  UNL1        0.1548
     24 N         140.4546  140.9129  169.5261 N.pl3   1  UNL1       -0.3196
     25 H         140.3820  140.1625  170.1593 H       1  UNL1        0.1481
     26 C         140.2393  142.3191  170.0017 C.3     1  UNL1        0.0705
     27 C         140.5387  143.7853  169.8991 C.3     1  UNL1        0.0212
     28 C         139.5670  143.2884  170.9281 C.3     1  UNL1        0.0212
     29 C         138.9845  138.2480  163.8060 C.1     1  UNL1        0.1052
     30 N         138.9026  137.7543  162.3919 N.1     1  UNL1       -0.1907
@<TRIPOS>BOND
     1    19    20    1
     2    20    21    2
     3    20    22   am
     4    22    12    1
     5    12    13   ar
     6    13    14   ar
     7    14    10    1
     8    10     1    1
     9     1     2   ar
    10     2     3   ar
    11     3    24    1
    12    24    26    1
    13    26    27    1
    14    27    28    1
    15     3     4   ar
    16     4     5   ar
    17     5     6   ar
    18     6     7   ar
    19     7    29    1
    20    29    30    3
    21     7     8   ar
    22     8     9   ar
    23    14    15   ar
    24    15    16   ar
    25    16    17   ar
    26    17    18    1
    27    17    12   ar
    28     9     1   ar
    29    28    26    1
    30     8     4   ar
    31    22    23    1
    32    10    11    1
    33    24    25    1
@<TRIPOS>MOLECULE
*****
 30 33 0 0 0
SMALL
GASTEIGER

@<TRIPOS>ATOM
      1 C         140.4879  142.3819  166.2118 C.ar    1  UNL1        0.1377
      2 C         141.2719  141.4517  165.3344 C.ar    1  UNL1        0.0686
      3 C         142.1143  140.3730  165.9485 C.ar    1  UNL1        0.1344
      4 N         142.1726  140.2248  167.4400 N.ar    1  UNL1       -0.1980
      5 N         142.9095  139.2637  168.3250 N.ar    1  UNL1       -0.1602
      6 C         142.5809  139.6000  169.7494 C.ar    1  UNL1        0.1339
      7 C         141.6409  140.7689  169.7447 C.ar    1  UNL1        0.1250
      8 C         141.3886  141.1551  168.3174 C.ar    1  UNL1        0.1776
      9 N         140.5462  142.2337  167.7033 N.ar    1  UNL1       -0.2109
     10 N         139.6455  143.4605  165.5977 N.pl3   1  UNL1       -0.2832
     11 H         138.9212  143.8763  166.1190 H       1  UNL1        0.1550
     12 C         139.3666  143.7744  161.6513 C.ar    1  UNL1        0.0506
     13 C         139.1054  143.3293  163.0597 C.ar    1  UNL1        0.0488
     14 C         139.9066  143.9056  164.1893 C.ar    1  UNL1        0.1344
     15 N         140.9691  144.9270  163.9104 N.ar    1  UNL1       -0.2293
     16 C         141.2303  145.3722  162.5019 C.ar    1  UNL1        0.0972
     17 C         140.4291  144.7959  161.3724 C.ar    1  UNL1        0.0109
     18 C         140.6903  145.2410  159.9640 C.3     1  UNL1        0.0340
     19 C         138.2201  141.3635  158.7148 C.3     1  UNL1        0.0949
     20 C         139.0213  141.9399  159.8444 C.2     1  UNL1        0.2266
     21 O         140.2786  141.2580  160.2964 O.2     1  UNL1       -0.2748
     22 N         138.5653  143.1981  160.5218 N.am    1  UNL1       -0.2840
     23 H         137.7401  143.6456  160.2251 H       1  UNL1        0.1548
     24 N         142.8983  139.4428  165.0710 N.pl3   1  UNL1       -0.3196
     25 H         142.7056  138.4774  165.0808 H       1  UNL1        0.1481
     26 C         143.9759  139.9834  164.1786 C.3     1  UNL1        0.0705
     27 C         144.5176  140.2375  162.8030 C.3     1  UNL1        0.0212
     28 C         145.3009  140.6657  164.0085 C.3     1  UNL1        0.0212
     29 C         141.0560  141.4348  170.9548 C.1     1  UNL1        0.1052
     30 N         140.4710  142.1007  172.1650 N.1     1  UNL1       -0.1907
@<TRIPOS>BOND
     1    19    20    1
     2    20    21    2
     3    20    22   am
     4    22    12    1
     5    12    13   ar
     6    13    14   ar
     7    14    10    1
     8    10     1    1
     9     1     2   ar
    10     2     3   ar
    11     3    24    1
    12    24    26    1
    13    26    27    1
    14    27    28    1
    15     3     4   ar
    16     4     5   ar
    17     5     6   ar
    18     6     7   ar
    19     7    29    1
    20    29    30    3
    21     7     8   ar
    22     8     9   ar
    23    14    15   ar
    24    15    16   ar
    25    16    17   ar
    26    17    18    1
    27    17    12   ar
    28     9     1   ar
    29    28    26    1
    30     8     4   ar
    31    22    23    1
    32    10    11    1
    33    24    25    1
