@<TRIPOS>MOLECULE
*****
 43 47 0 0 0
SMALL
GASTEIGER

@<TRIPOS>ATOM
      1 C         142.6164  142.0614  159.9157 C.ar    1  UNL1        0.0375
      2 C         143.6127  142.9849  159.2796 C.ar    1  UNL1        0.1031
      3 N         143.1607  143.9895  158.2616 N.ar    1  UNL1       -0.2121
      4 C         141.7123  144.0707  157.8796 C.ar    1  UNL1        0.2200
      5 N         140.7161  143.1472  158.5157 N.ar    1  UNL1       -0.2163
      6 C         141.1681  142.1426  159.5338 C.ar    1  UNL1        0.0836
      7 C         143.5926  139.7232  160.4901 C.ar    1  UNL1        0.1387
      8 C         144.0446  138.7186  161.5081 C.ar    1  UNL1        0.0369
      9 C         143.9724  139.0476  162.9698 C.ar    1  UNL1        0.0031
     10 C         143.4482  140.3811  163.4135 C.ar    1  UNL1       -0.0001
     11 C         142.9962  141.3857  162.3955 C.ar    1  UNL1        0.0031
     12 C         143.0684  141.0567  160.9338 C.ar    1  UNL1        0.0367
     13 C         143.3760  140.7100  164.8752 C.ar    1  UNL1       -0.0039
     14 C         143.6924  142.0978  165.3482 C.ar    1  UNL1       -0.0003
     15 C         143.6202  142.4268  166.8099 C.ar    1  UNL1        0.0011
     16 C         143.2316  141.3678  167.7986 C.ar    1  UNL1        0.0137
     17 C         142.9153  139.9800  167.3257 C.ar    1  UNL1       -0.0031
     18 C         142.9875  139.6511  165.8640 C.ar    1  UNL1       -0.0218
     19 C         142.6711  138.2631  165.3910 C.3     1  UNL1        0.0310
     20 C         143.1594  141.6968  169.2603 C.2     1  UNL1        0.0729
     21 O         143.3661  140.6189  170.2827 O.co2   1  UNL1       -0.5446
     22 O         142.8805  143.1036  169.6996 O.co2   1  UNL1       -0.5446
     23 C         142.7414  138.3666  158.4444 C.3     1  UNL1        0.2525
     24 O         143.6648  139.3943  159.0284 O.3     1  UNL1       -0.4714
     25 N         141.2604  145.0753  156.8616 N.pl3   1  UNL1       -0.2747
     26 C         141.9166  145.1246  155.5137 C.3     1  UNL1        0.1151
     27 C         140.1521  146.0308  157.1915 C.3     1  UNL1        0.1151
     28 C         140.1718  141.2191  160.1699 C.3     1  UNL1        0.1428
     29 N         139.6933  141.4797  161.5675 N.am    1  UNL1       -0.2380
     30 C         139.1089  142.7650  162.0738 C.2     1  UNL1        0.4055
     31 O         138.9003  144.0153  161.2717 O.2     1  UNL1       -0.2262
     32 O         138.7696  142.5806  163.5234 O.3     1  UNL1       -0.4320
     33 C         139.1444  141.1812  163.9127 C.3     1  UNL1        0.2108
     34 C         139.7153  140.5009  162.7038 C.3     1  UNL1        0.1233
     35 C         140.2195  139.0896  162.6422 C.3     1  UNL1        0.0258
     36 C         138.9776  140.5697  165.2721 C.ar    1  UNL1        0.0207
     37 C         138.2247  139.2816  165.4279 C.ar    1  UNL1        0.0107
     38 C         138.0579  138.6701  166.7872 C.ar    1  UNL1        0.0583
     39 CL        137.3051  137.3820  166.9429 Cl      1  UNL1       -0.0822
     40 C         138.6439  139.3465  167.9910 C.ar    1  UNL1        0.0228
     41 C         139.3968  140.6346  167.8353 C.ar    1  UNL1        0.0583
     42 CL        139.9828  141.3110  169.0391 Cl      1  UNL1       -0.0822
     43 C         139.5635  141.2461  166.4758 C.ar    1  UNL1        0.0107
@<TRIPOS>UNITY_ATOM_ATTR
21 1
charge -1
@<TRIPOS>BOND
     1    23    24    1
     2    24     7    1
     3     7     8   ar
     4     8     9   ar
     5     9    10   ar
     6    10    13    1
     7    13    14   ar
     8    14    15   ar
     9    15    16   ar
    10    16    20    1
    11    20    21   ar
    12    20    22   ar
    13    16    17   ar
    14    17    18   ar
    15    18    19    1
    16    10    11   ar
    17    11    12   ar
    18    12     1    1
    19     1     2   ar
    20     2     3   ar
    21     3     4   ar
    22     4    25    1
    23    25    26    1
    24    25    27    1
    25     4     5   ar
    26     5     6   ar
    27     6    28    1
    28    28    29    1
    29    29    30   am
    30    30    31    2
    31    30    32    1
    32    32    33    1
    33    33    36    1
    34    36    37   ar
    35    37    38   ar
    36    38    39    1
    37    38    40   ar
    38    40    41   ar
    39    41    42    1
    40    41    43   ar
    41    33    34    1
    42    34    35    1
    43    12     7   ar
    44     6     1   ar
    45    34    29    1
    46    18    13   ar
    47    43    36   ar
@<TRIPOS>MOLECULE
*****
 43 47 0 0 0
SMALL
GASTEIGER

@<TRIPOS>ATOM
      1 C         139.6926  139.9907  161.6892 C.ar    1  UNL1        0.0375
      2 C         138.2627  139.6595  161.3796 C.ar    1  UNL1        0.1031
      3 N         137.6330  140.1634  160.1149 N.ar    1  UNL1       -0.2121
      4 C         138.4333  140.9985  159.1596 C.ar    1  UNL1        0.2200
      5 N         139.8631  141.3296  159.4692 N.ar    1  UNL1       -0.2163
      6 C         140.4928  140.8257  160.7340 C.ar    1  UNL1        0.0836
      7 C         141.1161  138.2141  162.9412 C.ar    1  UNL1        0.1387
      8 C         141.7457  137.7103  164.2060 C.ar    1  UNL1        0.0369
      9 C         141.5814  138.4790  165.4835 C.ar    1  UNL1        0.0031
     10 C         140.7876  139.7516  165.4963 C.ar    1  UNL1       -0.0001
     11 C         140.1580  140.2555  164.2315 C.ar    1  UNL1        0.0031
     12 C         140.3222  139.4867  162.9540 C.ar    1  UNL1        0.0367
     13 C         140.6233  140.5204  166.7738 C.ar    1  UNL1       -0.0039
     14 C         139.7116  140.0047  167.8475 C.ar    1  UNL1       -0.0003
     15 C         139.5474  140.7734  169.1250 C.ar    1  UNL1        0.0011
     16 C         140.2948  142.0579  169.3288 C.ar    1  UNL1        0.0137
     17 C         141.2065  142.5735  168.2551 C.ar    1  UNL1       -0.0031
     18 C         141.3707  141.8048  166.9776 C.ar    1  UNL1       -0.0218
     19 C         142.2825  142.3205  165.9039 C.3     1  UNL1        0.0310
     20 C         140.1306  142.8266  170.6063 C.2     1  UNL1        0.0729
     21 O         139.7128  144.2667  170.5667 O.co2   1  UNL1       -0.5446
     22 O         140.3841  142.1553  171.9235 O.co2   1  UNL1       -0.5446
     23 C         142.5650  137.5345  160.8947 C.3     1  UNL1        0.2525
     24 O         141.2803  137.4454  161.6637 O.3     1  UNL1       -0.4714
     25 N         137.8036  141.5024  157.8949 N.pl3   1  UNL1       -0.2747
     26 C         138.2152  142.8292  157.3291 C.3     1  UNL1        0.1151
     27 C         136.7623  140.6795  157.1960 C.3     1  UNL1        0.1151
     28 C         141.9226  141.1568  161.0436 C.3     1  UNL1        0.1428
     29 N         142.7588  141.8868  160.0346 N.am    1  UNL1       -0.2380
     30 C         143.0871  143.3503  160.0549 C.2     1  UNL1        0.4055
     31 O         142.6369  144.3408  161.0875 O.2     1  UNL1       -0.2262
     32 O         143.9447  143.6495  158.8610 O.3     1  UNL1       -0.4320
     33 C         144.1464  142.3709  158.1031 C.3     1  UNL1        0.2108
     34 C         143.4135  141.2815  158.8284 C.3     1  UNL1        0.1233
     35 C         143.3469  139.8399  158.4194 C.3     1  UNL1        0.0258
     36 C         144.9413  142.2099  156.8414 C.ar    1  UNL1        0.0207
     37 C         144.2385  142.1016  155.5206 C.ar    1  UNL1        0.0107
     38 C         145.0335  141.9406  154.2589 C.ar    1  UNL1        0.0583
     39 CL        144.3306  141.8324  152.9382 Cl      1  UNL1       -0.0822
     40 C         146.5314  141.8879  154.3178 C.ar    1  UNL1        0.0228
     41 C         147.2344  141.9962  155.6386 C.ar    1  UNL1        0.0583
     42 CL        148.7323  141.9435  155.6975 Cl      1  UNL1       -0.0822
     43 C         146.4392  142.1572  156.9003 C.ar    1  UNL1        0.0107
@<TRIPOS>UNITY_ATOM_ATTR
21 1
charge -1
@<TRIPOS>BOND
     1    23    24    1
     2    24     7    1
     3     7     8   ar
     4     8     9   ar
     5     9    10   ar
     6    10    13    1
     7    13    14   ar
     8    14    15   ar
     9    15    16   ar
    10    16    20    1
    11    20    21   ar
    12    20    22   ar
    13    16    17   ar
    14    17    18   ar
    15    18    19    1
    16    10    11   ar
    17    11    12   ar
    18    12     1    1
    19     1     2   ar
    20     2     3   ar
    21     3     4   ar
    22     4    25    1
    23    25    26    1
    24    25    27    1
    25     4     5   ar
    26     5     6   ar
    27     6    28    1
    28    28    29    1
    29    29    30   am
    30    30    31    2
    31    30    32    1
    32    32    33    1
    33    33    36    1
    34    36    37   ar
    35    37    38   ar
    36    38    39    1
    37    38    40   ar
    38    40    41   ar
    39    41    42    1
    40    41    43   ar
    41    33    34    1
    42    34    35    1
    43    12     7   ar
    44     6     1   ar
    45    34    29    1
    46    18    13   ar
    47    43    36   ar
@<TRIPOS>MOLECULE
*****
 43 47 0 0 0
SMALL
GASTEIGER

@<TRIPOS>ATOM
      1 C         141.0319  138.8624  158.2938 C.ar    1  UNL1        0.0375
      2 C         140.1237  137.9893  157.4796 C.ar    1  UNL1        0.1031
      3 N         140.7032  136.9954  156.5172 N.ar    1  UNL1       -0.2121
      4 C         142.1910  136.8745  156.3690 C.ar    1  UNL1        0.2200
      5 N         143.0992  137.7476  157.1831 N.ar    1  UNL1       -0.2163
      6 C         142.5196  138.7416  158.1455 C.ar    1  UNL1        0.0836
      7 C         140.2591  141.2831  158.8353 C.ar    1  UNL1        0.1387
      8 C         139.6796  142.2770  159.7977 C.ar    1  UNL1        0.0369
      9 C         139.2932  141.8442  161.1810 C.ar    1  UNL1        0.0031
     10 C         139.4864  140.4175  161.6018 C.ar    1  UNL1       -0.0001
     11 C         140.0660  139.4236  160.6394 C.ar    1  UNL1        0.0031
     12 C         140.4523  139.8564  159.2562 C.ar    1  UNL1        0.0367
     13 C         139.1000  139.9847  162.9851 C.ar    1  UNL1       -0.0039
     14 C         138.4499  140.9593  163.9217 C.ar    1  UNL1       -0.0003
     15 C         138.0635  140.5265  165.3050 C.ar    1  UNL1        0.0011
     16 C         138.3273  139.1190  165.7516 C.ar    1  UNL1        0.0137
     17 C         138.9775  138.1444  164.8150 C.ar    1  UNL1       -0.0031
     18 C         139.3639  138.5772  163.4317 C.ar    1  UNL1       -0.0218
     19 C         140.0141  137.6025  162.4950 C.3     1  UNL1        0.0310
     20 C         137.9410  138.6862  167.1349 C.2     1  UNL1        0.0729
     21 O         138.5144  139.3904  168.3287 O.co2   1  UNL1       -0.5446
     22 O         136.9811  137.5492  167.3243 O.co2   1  UNL1       -0.5446
     23 C         141.8031  142.6490  157.2541 C.3     1  UNL1        0.2525
     24 O         140.6455  141.7159  157.4521 O.3     1  UNL1       -0.4714
     25 N         142.7705  135.8806  155.4066 N.pl3   1  UNL1       -0.2747
     26 C         143.7385  134.8428  155.8923 C.3     1  UNL1        0.1151
     27 C         142.3820  135.9245  153.9585 C.3     1  UNL1        0.1151
     28 C         143.4278  139.6147  158.9597 C.3     1  UNL1        0.1428
     29 N         143.4432  139.4931  160.4547 N.am    1  UNL1       -0.2380
     30 C         143.5869  138.2196  161.2342 C.2     1  UNL1        0.4055
     31 O         143.7404  136.8442  160.6557 O.2     1  UNL1       -0.2262
     32 O         143.5501  138.5631  162.6940 O.3     1  UNL1       -0.4320
     33 C         143.3837  140.0488  162.8165 C.3     1  UNL1        0.2108
     34 C         143.3176  140.6236  161.4326 C.3     1  UNL1        0.1233
     35 C         143.1546  142.0741  161.0871 C.3     1  UNL1        0.0258
     36 C         143.2983  140.8237  164.0979 C.ar    1  UNL1        0.0207
     37 C         144.1534  142.0399  164.2975 C.ar    1  UNL1        0.0107
     38 C         144.0680  142.8147  165.5789 C.ar    1  UNL1        0.0583
     39 CL        144.9231  144.0308  165.7784 Cl      1  UNL1       -0.0822
     40 C         143.1276  142.3735  166.6610 C.ar    1  UNL1        0.0228
     41 C         142.2724  141.1573  166.4615 C.ar    1  UNL1        0.0583
     42 CL        141.3319  140.7161  167.5436 Cl      1  UNL1       -0.0822
     43 C         142.3578  140.3825  165.1800 C.ar    1  UNL1        0.0107
@<TRIPOS>UNITY_ATOM_ATTR
21 1
charge -1
@<TRIPOS>BOND
     1    23    24    1
     2    24     7    1
     3     7     8   ar
     4     8     9   ar
     5     9    10   ar
     6    10    13    1
     7    13    14   ar
     8    14    15   ar
     9    15    16   ar
    10    16    20    1
    11    20    21   ar
    12    20    22   ar
    13    16    17   ar
    14    17    18   ar
    15    18    19    1
    16    10    11   ar
    17    11    12   ar
    18    12     1    1
    19     1     2   ar
    20     2     3   ar
    21     3     4   ar
    22     4    25    1
    23    25    26    1
    24    25    27    1
    25     4     5   ar
    26     5     6   ar
    27     6    28    1
    28    28    29    1
    29    29    30   am
    30    30    31    2
    31    30    32    1
    32    32    33    1
    33    33    36    1
    34    36    37   ar
    35    37    38   ar
    36    38    39    1
    37    38    40   ar
    38    40    41   ar
    39    41    42    1
    40    41    43   ar
    41    33    34    1
    42    34    35    1
    43    12     7   ar
    44     6     1   ar
    45    34    29    1
    46    18    13   ar
    47    43    36   ar
@<TRIPOS>MOLECULE
*****
 43 47 0 0 0
SMALL
GASTEIGER

@<TRIPOS>ATOM
      1 C         140.9923  138.9169  158.2896 C.ar    1  UNL1        0.0375
      2 C         140.0929  138.0392  157.4708 C.ar    1  UNL1        0.1031
      3 N         140.6823  137.0573  156.5021 N.ar    1  UNL1       -0.2121
      4 C         142.1712  136.9531  156.3522 C.ar    1  UNL1        0.2200
      5 N         143.0706  137.8309  157.1711 N.ar    1  UNL1       -0.2163
      6 C         142.4812  138.8128  158.1398 C.ar    1  UNL1        0.0836
      7 C         140.1889  141.3246  158.8444 C.ar    1  UNL1        0.1387
      8 C         139.5995  142.3065  159.8131 C.ar    1  UNL1        0.0369
      9 C         139.2240  141.8626  161.1958 C.ar    1  UNL1        0.0031
     10 C         139.4379  140.4369  161.6098 C.ar    1  UNL1       -0.0001
     11 C         140.0273  139.4550  160.6411 C.ar    1  UNL1        0.0031
     12 C         140.4029  139.8989  159.2584 C.ar    1  UNL1        0.0367
     13 C         139.0624  139.9930  162.9926 C.ar    1  UNL1       -0.0039
     14 C         138.4284  140.9627  163.9453 C.ar    1  UNL1       -0.0003
     15 C         138.0528  140.5188  165.3280 C.ar    1  UNL1        0.0011
     16 C         138.3113  139.1052  165.7580 C.ar    1  UNL1        0.0137
     17 C         138.9454  138.1356  164.8053 C.ar    1  UNL1       -0.0031
     18 C         139.3209  138.5794  163.4226 C.ar    1  UNL1       -0.0218
     19 C         139.9550  137.6097  162.4699 C.3     1  UNL1        0.0310
     20 C         137.9358  138.6614  167.1408 C.2     1  UNL1        0.0729
     21 O         136.9979  137.5060  167.3288 O.co2   1  UNL1       -0.5446
     22 O         138.4982  139.3729  168.3355 O.co2   1  UNL1       -0.5446
     23 C         140.1309  143.1149  156.9625 C.3     1  UNL1        0.2525
     24 O         140.5645  141.7685  157.4616 O.3     1  UNL1       -0.4714
     25 N         142.7606  135.9712  155.3835 N.pl3   1  UNL1       -0.2747
     26 C         142.2736  135.9323  153.9653 C.3     1  UNL1        0.1151
     27 C         143.8369  135.0281  155.8330 C.3     1  UNL1        0.1151
     28 C         143.3806  139.6906  158.9587 C.3     1  UNL1        0.1428
     29 N         143.3875  139.5703  160.4539 N.am    1  UNL1       -0.2380
     30 C         143.5290  138.2978  161.2353 C.2     1  UNL1        0.4055
     31 O         143.6885  136.9222  160.6589 O.2     1  UNL1       -0.2262
     32 O         143.4830  138.6425  162.6945 O.3     1  UNL1       -0.4320
     33 C         143.3131  140.1280  162.8148 C.3     1  UNL1        0.2108
     34 C         143.2540  140.7014  161.4300 C.3     1  UNL1        0.1233
     35 C         143.0903  142.1513  161.0823 C.3     1  UNL1        0.0258
     36 C         143.2188  140.9038  164.0950 C.ar    1  UNL1        0.0207
     37 C         142.2178  140.5082  165.1398 C.ar    1  UNL1        0.0107
     38 C         142.1234  141.2840  166.4200 C.ar    1  UNL1        0.0583
     39 CL        141.1225  140.8884  167.4648 Cl      1  UNL1       -0.0822
     40 C         143.0301  142.4555  166.6556 C.ar    1  UNL1        0.0228
     41 C         144.0312  142.8512  165.6109 C.ar    1  UNL1        0.0583
     42 CL        144.9379  144.0227  165.8465 Cl      1  UNL1       -0.0822
     43 C         144.1254  142.0753  164.3306 C.ar    1  UNL1        0.0107
@<TRIPOS>UNITY_ATOM_ATTR
21 1
charge -1
@<TRIPOS>BOND
     1    23    24    1
     2    24     7    1
     3     7     8   ar
     4     8     9   ar
     5     9    10   ar
     6    10    13    1
     7    13    14   ar
     8    14    15   ar
     9    15    16   ar
    10    16    20    1
    11    20    21   ar
    12    20    22   ar
    13    16    17   ar
    14    17    18   ar
    15    18    19    1
    16    10    11   ar
    17    11    12   ar
    18    12     1    1
    19     1     2   ar
    20     2     3   ar
    21     3     4   ar
    22     4    25    1
    23    25    26    1
    24    25    27    1
    25     4     5   ar
    26     5     6   ar
    27     6    28    1
    28    28    29    1
    29    29    30   am
    30    30    31    2
    31    30    32    1
    32    32    33    1
    33    33    36    1
    34    36    37   ar
    35    37    38   ar
    36    38    39    1
    37    38    40   ar
    38    40    41   ar
    39    41    42    1
    40    41    43   ar
    41    33    34    1
    42    34    35    1
    43    12     7   ar
    44     6     1   ar
    45    34    29    1
    46    18    13   ar
    47    43    36   ar
@<TRIPOS>MOLECULE
*****
 43 47 0 0 0
SMALL
GASTEIGER

@<TRIPOS>ATOM
      1 C         140.3473  141.7799  158.8381 C.ar    1  UNL1        0.0375
      2 C         139.4222  141.5755  157.6752 C.ar    1  UNL1        0.1031
      3 N         139.0540  142.7343  156.7969 N.ar    1  UNL1       -0.2121
      4 C         139.6110  144.0977  157.0815 C.ar    1  UNL1        0.2200
      5 N         140.5362  144.3022  158.2444 N.ar    1  UNL1       -0.2163
      6 C         140.9043  143.1433  159.1227 C.ar    1  UNL1        0.0836
      7 C         141.7492  139.6339  159.2615 C.ar    1  UNL1        0.1387
      8 C         142.1173  138.4750  160.1398 C.ar    1  UNL1        0.0369
      9 C         141.4517  138.3032  161.4730 C.ar    1  UNL1        0.0031
     10 C         140.4179  139.2903  161.9279 C.ar    1  UNL1       -0.0001
     11 C         140.0498  140.4491  161.0496 C.ar    1  UNL1        0.0031
     12 C         140.7155  140.6210  159.7164 C.ar    1  UNL1        0.0367
     13 C         139.7522  139.1185  163.2611 C.ar    1  UNL1       -0.0039
     14 C         138.7356  140.1185  163.7262 C.ar    1  UNL1       -0.0003
     15 C         138.0699  139.9466  165.0593 C.ar    1  UNL1        0.0011
     16 C         138.4209  138.7748  165.9274 C.ar    1  UNL1        0.0137
     17 C         139.4376  137.7748  165.4623 C.ar    1  UNL1       -0.0031
     18 C         140.1032  137.9467  164.1292 C.ar    1  UNL1       -0.0218
     19 C         141.1199  136.9466  163.6641 C.3     1  UNL1        0.0310
     20 C         137.7552  138.6030  167.2606 C.2     1  UNL1        0.0729
     21 O         136.5931  137.6655  167.4034 O.co2   1  UNL1       -0.5446
     22 O         138.2517  139.3688  168.4510 O.co2   1  UNL1       -0.5446
     23 C         143.7126  140.5513  157.8286 C.3     1  UNL1        0.2525
     24 O         142.4149  139.8057  157.9284 O.3     1  UNL1       -0.4714
     25 N         139.2429  145.2566  156.2032 N.pl3   1  UNL1       -0.2747
     26 C         140.0064  146.5440  156.3010 C.3     1  UNL1        0.1151
     27 C         138.1112  145.1280  155.2272 C.3     1  UNL1        0.1151
     28 C         141.8294  143.3477  160.2856 C.3     1  UNL1        0.1428
     29 N         141.2896  143.3328  161.6851 N.am    1  UNL1       -0.2380
     30 C         140.1029  144.1050  162.1805 C.2     1  UNL1        0.4055
     31 O         139.2477  145.0276  161.3636 O.2     1  UNL1       -0.2262
     32 O         139.9216  143.7925  163.6364 O.3     1  UNL1       -0.4320
     33 C         140.9963  142.8273  164.0407 C.3     1  UNL1        0.2108
     34 C         141.8417  142.5432  162.8347 C.3     1  UNL1        0.1233
     35 C         143.0306  141.6298  162.7866 C.3     1  UNL1        0.0258
     36 C         141.1912  142.2479  165.4104 C.ar    1  UNL1        0.0207
     37 C         141.8929  140.9324  165.5755 C.ar    1  UNL1        0.0107
     38 C         142.0878  140.3530  166.9452 C.ar    1  UNL1        0.0583
     39 CL        142.7894  139.0375  167.1102 Cl      1  UNL1       -0.0822
     40 C         141.5812  141.0890  168.1499 C.ar    1  UNL1        0.0228
     41 C         140.8795  142.4046  167.9850 C.ar    1  UNL1        0.0583
     42 CL        140.3728  143.1406  169.1898 Cl      1  UNL1       -0.0822
     43 C         140.6846  142.9839  166.6152 C.ar    1  UNL1        0.0107
@<TRIPOS>UNITY_ATOM_ATTR
21 1
charge -1
@<TRIPOS>BOND
     1    23    24    1
     2    24     7    1
     3     7     8   ar
     4     8     9   ar
     5     9    10   ar
     6    10    13    1
     7    13    14   ar
     8    14    15   ar
     9    15    16   ar
    10    16    20    1
    11    20    21   ar
    12    20    22   ar
    13    16    17   ar
    14    17    18   ar
    15    18    19    1
    16    10    11   ar
    17    11    12   ar
    18    12     1    1
    19     1     2   ar
    20     2     3   ar
    21     3     4   ar
    22     4    25    1
    23    25    26    1
    24    25    27    1
    25     4     5   ar
    26     5     6   ar
    27     6    28    1
    28    28    29    1
    29    29    30   am
    30    30    31    2
    31    30    32    1
    32    32    33    1
    33    33    36    1
    34    36    37   ar
    35    37    38   ar
    36    38    39    1
    37    38    40   ar
    38    40    41   ar
    39    41    42    1
    40    41    43   ar
    41    33    34    1
    42    34    35    1
    43    12     7   ar
    44     6     1   ar
    45    34    29    1
    46    18    13   ar
    47    43    36   ar
@<TRIPOS>MOLECULE
*****
 43 47 0 0 0
SMALL
GASTEIGER

@<TRIPOS>ATOM
      1 C         140.0693  141.8809  158.5681 C.ar    1  UNL1        0.0375
      2 C         139.0746  141.7575  157.4521 C.ar    1  UNL1        0.1031
      3 N         138.7165  142.9600  156.6302 N.ar    1  UNL1       -0.2121
      4 C         139.3531  144.2860  156.9242 C.ar    1  UNL1        0.2200
      5 N         140.3478  144.4095  158.0401 N.ar    1  UNL1       -0.2163
      6 C         140.7059  143.2069  158.8621 C.ar    1  UNL1        0.0836
      7 C         141.3574  139.6404  158.8351 C.ar    1  UNL1        0.1387
      8 C         141.7154  138.4379  159.6571 C.ar    1  UNL1        0.0369
      9 C         141.1434  138.2732  161.0339 C.ar    1  UNL1        0.0031
     10 C         140.2134  139.3110  161.5888 C.ar    1  UNL1       -0.0001
     11 C         139.8554  140.5135  160.7669 C.ar    1  UNL1        0.0031
     12 C         140.4274  140.6783  159.3900 C.ar    1  UNL1        0.0367
     13 C         139.6414  139.1463  162.9657 C.ar    1  UNL1       -0.0039
     14 C         140.1423  138.0510  163.8598 C.ar    1  UNL1       -0.0003
     15 C         139.5703  137.8863  165.2366 C.ar    1  UNL1        0.0011
     16 C         138.4974  138.8168  165.7193 C.ar    1  UNL1        0.0137
     17 C         137.9965  139.9120  164.8252 C.ar    1  UNL1       -0.0031
     18 C         138.5685  140.0768  163.4484 C.ar    1  UNL1       -0.0218
     19 C         138.0676  141.1721  162.5542 C.3     1  UNL1        0.0310
     20 C         137.9254  138.6521  167.0962 C.2     1  UNL1        0.0729
     21 O         136.7343  137.7665  167.3125 O.co2   1  UNL1       -0.5446
     22 O         138.5446  139.3729  168.2567 O.co2   1  UNL1       -0.5446
     23 C         143.2317  140.5248  157.2683 C.3     1  UNL1        0.2525
     24 O         141.9294  139.8052  157.4583 O.3     1  UNL1       -0.4714
     25 N         138.9950  145.4886  156.1022 N.pl3   1  UNL1       -0.2747
     26 C         137.9852  145.3697  154.9995 C.3     1  UNL1        0.1151
     27 C         139.6468  146.8100  156.3830 C.3     1  UNL1        0.1151
     28 C         141.7006  143.3303  159.9780 C.3     1  UNL1        0.1428
     29 N         141.2297  143.3676  161.4017 N.am    1  UNL1       -0.2380
     30 C         140.1485  144.2511  161.9498 C.2     1  UNL1        0.4055
     31 O         139.3484  145.2523  161.1706 O.2     1  UNL1       -0.2262
     32 O         140.0079  143.9575  163.4142 O.3     1  UNL1       -0.4320
     33 C         141.0023  142.8925  163.7709 C.3     1  UNL1        0.2108
     34 C         141.7574  142.5280  162.5272 C.3     1  UNL1        0.1233
     35 C         142.8485  141.5037  162.4265 C.3     1  UNL1        0.0258
     36 C         141.2058  142.2968  165.1323 C.ar    1  UNL1        0.0207
     37 C         140.6995  143.0144  166.3484 C.ar    1  UNL1        0.0107
     38 C         140.9030  142.4187  167.7098 C.ar    1  UNL1        0.0583
     39 CL        140.3968  143.1363  168.9258 Cl      1  UNL1       -0.0822
     40 C         141.6128  141.1053  167.8554 C.ar    1  UNL1        0.0228
     41 C         142.1191  140.3876  166.6393 C.ar    1  UNL1        0.0583
     42 CL        142.8288  139.0742  166.7848 Cl      1  UNL1       -0.0822
     43 C         141.9155  140.9834  165.2779 C.ar    1  UNL1        0.0107
@<TRIPOS>UNITY_ATOM_ATTR
21 1
charge -1
@<TRIPOS>BOND
     1    23    24    1
     2    24     7    1
     3     7     8   ar
     4     8     9   ar
     5     9    10   ar
     6    10    13    1
     7    13    14   ar
     8    14    15   ar
     9    15    16   ar
    10    16    20    1
    11    20    21   ar
    12    20    22   ar
    13    16    17   ar
    14    17    18   ar
    15    18    19    1
    16    10    11   ar
    17    11    12   ar
    18    12     1    1
    19     1     2   ar
    20     2     3   ar
    21     3     4   ar
    22     4    25    1
    23    25    26    1
    24    25    27    1
    25     4     5   ar
    26     5     6   ar
    27     6    28    1
    28    28    29    1
    29    29    30   am
    30    30    31    2
    31    30    32    1
    32    32    33    1
    33    33    36    1
    34    36    37   ar
    35    37    38   ar
    36    38    39    1
    37    38    40   ar
    38    40    41   ar
    39    41    42    1
    40    41    43   ar
    41    33    34    1
    42    34    35    1
    43    12     7   ar
    44     6     1   ar
    45    34    29    1
    46    18    13   ar
    47    43    36   ar
@<TRIPOS>MOLECULE
*****
 43 47 0 0 0
SMALL
GASTEIGER

@<TRIPOS>ATOM
      1 C         140.2160  138.5833  157.4331 C.ar    1  UNL1        0.0375
      2 C         139.6497  137.2863  156.9360 C.ar    1  UNL1        0.1031
      3 N         138.8274  137.2587  155.6818 N.ar    1  UNL1       -0.2121
      4 C         138.5713  138.5281  154.9247 C.ar    1  UNL1        0.2200
      5 N         139.1376  139.8251  155.4219 N.ar    1  UNL1       -0.2163
      6 C         139.9600  139.8526  156.6761 C.ar    1  UNL1        0.0836
      7 C         142.5357  138.5815  158.6033 C.ar    1  UNL1        0.1387
      8 C         143.3580  138.6090  159.8575 C.ar    1  UNL1        0.0369
      9 C         142.6829  138.6658  161.1958 C.ar    1  UNL1        0.0031
     10 C         141.1856  138.6951  161.2799 C.ar    1  UNL1       -0.0001
     11 C         140.3633  138.6676  160.0257 C.ar    1  UNL1        0.0031
     12 C         141.0384  138.6108  158.6874 C.ar    1  UNL1        0.0367
     13 C         140.5105  138.7520  162.6182 C.ar    1  UNL1       -0.0039
     14 C         139.5181  137.6951  163.0031 C.ar    1  UNL1       -0.0003
     15 C         138.8431  137.7520  164.3414 C.ar    1  UNL1        0.0011
     16 C         139.1604  138.8656  165.2948 C.ar    1  UNL1        0.0137
     17 C         140.1529  139.9224  164.9099 C.ar    1  UNL1       -0.0031
     18 C         140.8279  139.8656  163.5716 C.ar    1  UNL1       -0.0218
     19 C         141.8204  140.9225  163.1867 C.3     1  UNL1        0.0310
     20 C         138.4854  138.9224  166.6331 C.2     1  UNL1        0.0729
     21 O         137.2279  138.1405  166.8727 O.co2   1  UNL1       -0.5446
     22 O         139.0678  139.7611  167.7319 O.co2   1  UNL1       -0.5446
     23 C         143.8837  139.7458  156.7119 C.3     1  UNL1        0.2525
     24 O         143.2107  138.5247  157.2649 O.3     1  UNL1       -0.4714
     25 N         137.7490  138.5006  153.6706 N.pl3   1  UNL1       -0.2747
     26 C         138.3695  138.0648  152.3763 C.3     1  UNL1        0.1151
     27 C         136.3062  138.9088  153.7107 C.3     1  UNL1        0.1151
     28 C         140.5263  141.1496  157.1733 C.3     1  UNL1        0.1428
     29 N         139.8506  141.8823  158.2944 N.am    1  UNL1       -0.2380
     30 C         138.4076  142.2894  158.3383 C.2     1  UNL1        0.4055
     31 O         137.3869  142.0353  157.2689 O.2     1  UNL1       -0.2262
     32 O         138.1645  142.9952  159.6394 O.3     1  UNL1       -0.4320
     33 C         139.4573  143.0242  160.3996 C.3     1  UNL1        0.2108
     34 C         140.4994  142.3364  159.5683 C.3     1  UNL1        0.1233
     35 C         141.9377  142.1376  159.9448 C.3     1  UNL1        0.0258
     36 C         139.6706  143.6340  161.7533 C.ar    1  UNL1        0.0207
     37 C         141.0106  144.2011  162.1178 C.ar    1  UNL1        0.0107
     38 C         141.2238  144.8109  163.4715 C.ar    1  UNL1        0.0583
     39 CL        142.5638  145.3779  163.8360 Cl      1  UNL1       -0.0822
     40 C         140.0971  144.8536  164.4608 C.ar    1  UNL1        0.0228
     41 C         138.7571  144.2865  164.0963 C.ar    1  UNL1        0.0583
     42 CL        137.6303  144.3293  165.0856 Cl      1  UNL1       -0.0822
     43 C         138.5439  143.6768  162.7425 C.ar    1  UNL1        0.0107
@<TRIPOS>UNITY_ATOM_ATTR
21 1
charge -1
@<TRIPOS>BOND
     1    23    24    1
     2    24     7    1
     3     7     8   ar
     4     8     9   ar
     5     9    10   ar
     6    10    13    1
     7    13    14   ar
     8    14    15   ar
     9    15    16   ar
    10    16    20    1
    11    20    21   ar
    12    20    22   ar
    13    16    17   ar
    14    17    18   ar
    15    18    19    1
    16    10    11   ar
    17    11    12   ar
    18    12     1    1
    19     1     2   ar
    20     2     3   ar
    21     3     4   ar
    22     4    25    1
    23    25    26    1
    24    25    27    1
    25     4     5   ar
    26     5     6   ar
    27     6    28    1
    28    28    29    1
    29    29    30   am
    30    30    31    2
    31    30    32    1
    32    32    33    1
    33    33    36    1
    34    36    37   ar
    35    37    38   ar
    36    38    39    1
    37    38    40   ar
    38    40    41   ar
    39    41    42    1
    40    41    43   ar
    41    33    34    1
    42    34    35    1
    43    12     7   ar
    44     6     1   ar
    45    34    29    1
    46    18    13   ar
    47    43    36   ar
@<TRIPOS>MOLECULE
*****
 43 47 0 0 0
SMALL
GASTEIGER

@<TRIPOS>ATOM
      1 C         142.0477  141.4244  158.7360 C.ar    1  UNL1        0.0375
      2 C         142.7751  140.3889  157.9307 C.ar    1  UNL1        0.1031
      3 N         144.1628  140.6647  157.4326 N.ar    1  UNL1       -0.2121
      4 C         144.8231  141.9761  157.7399 C.ar    1  UNL1        0.2200
      5 N         144.0957  143.0116  158.5452 N.ar    1  UNL1       -0.2163
      6 C         142.7079  142.7357  159.0433 C.ar    1  UNL1        0.0836
      7 C         139.4892  141.2840  158.3062 C.ar    1  UNL1        0.1387
      8 C         138.1015  141.0081  158.8043 C.ar    1  UNL1        0.0369
      9 C         137.8845  140.5967  160.2303 C.ar    1  UNL1        0.0031
     10 C         139.0551  140.4612  161.1583 C.ar    1  UNL1       -0.0001
     11 C         140.4428  140.7371  160.6602 C.ar    1  UNL1        0.0031
     12 C         140.6599  141.1485  159.2341 C.ar    1  UNL1        0.0367
     13 C         138.8381  140.0499  162.5844 C.ar    1  UNL1       -0.0039
     14 C         138.2122  141.0077  163.5543 C.ar    1  UNL1       -0.0003
     15 C         137.9952  140.5963  164.9804 C.ar    1  UNL1        0.0011
     16 C         138.4040  139.2271  165.4365 C.ar    1  UNL1        0.0137
     17 C         139.0299  138.2693  164.4666 C.ar    1  UNL1       -0.0031
     18 C         139.2469  138.6807  163.0405 C.ar    1  UNL1       -0.0218
     19 C         139.8728  137.7227  162.0706 C.3     1  UNL1        0.0310
     20 C         138.1870  138.8157  166.8626 C.2     1  UNL1        0.0729
     21 O         138.9625  139.4802  167.9612 O.co2   1  UNL1       -0.5446
     22 O         137.1944  137.7399  167.1900 O.co2   1  UNL1       -0.5446
     23 C         139.5286  143.1294  156.4779 C.3     1  UNL1        0.2525
     24 O         139.7062  141.6953  156.8801 O.3     1  UNL1       -0.4714
     25 N         146.2109  142.2519  157.2418 N.pl3   1  UNL1       -0.2747
     26 C         146.6693  141.6693  155.9378 C.3     1  UNL1        0.1151
     27 C         147.1401  143.1103  158.0477 C.3     1  UNL1        0.1151
     28 C         141.9805  143.7712  159.8486 C.3     1  UNL1        0.1428
     29 N         141.5861  143.4782  161.2660 N.am    1  UNL1       -0.2380
     30 C         140.3754  144.0121  161.9724 C.2     1  UNL1        0.4055
     31 O         139.3465  144.9326  161.3858 O.2     1  UNL1       -0.2262
     32 O         140.3741  143.4639  163.3687 O.3     1  UNL1       -0.4320
     33 C         141.5841  142.5912  163.5251 C.3     1  UNL1        0.2108
     34 C         142.3331  142.6001  162.2255 C.3     1  UNL1        0.1233
     35 C         143.6057  141.8606  161.9362 C.3     1  UNL1        0.0258
     36 C         141.9762  141.8413  164.7635 C.ar    1  UNL1        0.0207
     37 C         142.1498  140.3521  164.7153 C.ar    1  UNL1        0.0107
     38 C         142.5419  139.6022  165.9537 C.ar    1  UNL1        0.0583
     39 CL        142.7154  138.1131  165.9055 Cl      1  UNL1       -0.0822
     40 C         142.7605  140.3414  167.2405 C.ar    1  UNL1        0.0228
     41 C         142.5869  141.8306  167.2888 C.ar    1  UNL1        0.0583
     42 CL        142.8055  142.5698  168.5756 Cl      1  UNL1       -0.0822
     43 C         142.1948  142.5805  166.0503 C.ar    1  UNL1        0.0107
@<TRIPOS>UNITY_ATOM_ATTR
21 1
charge -1
@<TRIPOS>BOND
     1    23    24    1
     2    24     7    1
     3     7     8   ar
     4     8     9   ar
     5     9    10   ar
     6    10    13    1
     7    13    14   ar
     8    14    15   ar
     9    15    16   ar
    10    16    20    1
    11    20    21   ar
    12    20    22   ar
    13    16    17   ar
    14    17    18   ar
    15    18    19    1
    16    10    11   ar
    17    11    12   ar
    18    12     1    1
    19     1     2   ar
    20     2     3   ar
    21     3     4   ar
    22     4    25    1
    23    25    26    1
    24    25    27    1
    25     4     5   ar
    26     5     6   ar
    27     6    28    1
    28    28    29    1
    29    29    30   am
    30    30    31    2
    31    30    32    1
    32    32    33    1
    33    33    36    1
    34    36    37   ar
    35    37    38   ar
    36    38    39    1
    37    38    40   ar
    38    40    41   ar
    39    41    42    1
    40    41    43   ar
    41    33    34    1
    42    34    35    1
    43    12     7   ar
    44     6     1   ar
    45    34    29    1
    46    18    13   ar
    47    43    36   ar
@<TRIPOS>MOLECULE
*****
 43 47 0 0 0
SMALL
GASTEIGER

@<TRIPOS>ATOM
      1 C         140.5580  142.7474  161.4283 C.ar    1  UNL1        0.0375
      2 C         139.4793  143.7524  161.1514 C.ar    1  UNL1        0.1031
      3 N         139.6273  144.7166  160.0120 N.ar    1  UNL1       -0.2121
      4 C         140.8539  144.6760  159.1495 C.ar    1  UNL1        0.2200
      5 N         141.9325  143.6711  159.4264 N.ar    1  UNL1       -0.2163
      6 C         141.7845  142.7068  160.5659 C.ar    1  UNL1        0.0836
      7 C         139.8417  140.4164  162.3247 C.ar    1  UNL1        0.1387
      8 C         139.6938  139.4522  163.4642 C.ar    1  UNL1        0.0369
      9 C         140.1141  139.8547  164.8467 C.ar    1  UNL1        0.0031
     10 C         140.6823  141.2214  165.0897 C.ar    1  UNL1       -0.0001
     11 C         140.8303  142.1857  163.9503 C.ar    1  UNL1        0.0031
     12 C         140.4100  141.7831  162.5678 C.ar    1  UNL1        0.0367
     13 C         141.1026  141.6240  166.4723 C.ar    1  UNL1       -0.0039
     14 C         140.0658  141.9195  167.5151 C.ar    1  UNL1       -0.0003
     15 C         140.4862  142.3220  168.8977 C.ar    1  UNL1        0.0011
     16 C         141.9432  142.4290  169.2373 C.ar    1  UNL1        0.0137
     17 C         142.9800  142.1334  168.1944 C.ar    1  UNL1       -0.0031
     18 C         142.5597  141.7309  166.8119 C.ar    1  UNL1       -0.0218
     19 C         143.5966  141.4354  165.7690 C.3     1  UNL1        0.0310
     20 C         142.3635  142.8315  170.6198 C.2     1  UNL1        0.0729
     21 O         141.7334  142.1798  171.8148 O.co2   1  UNL1       -0.5446
     22 O         143.4140  143.8856  170.8072 O.co2   1  UNL1       -0.5446
     23 C         139.1258  138.5754  160.6372 C.3     1  UNL1        0.2525
     24 O         139.4214  140.0139  160.9422 O.3     1  UNL1       -0.4714
     25 N         141.0018  145.6402  158.0101 N.pl3   1  UNL1       -0.2747
     26 C         139.8160  146.4255  157.5333 C.3     1  UNL1        0.1151
     27 C         142.3355  145.8193  157.3474 C.3     1  UNL1        0.1151
     28 C         142.8631  141.7018  160.8428 C.3     1  UNL1        0.1428
     29 N         142.7236  140.2946  160.3423 N.am    1  UNL1       -0.2380
     30 C         142.9580  139.0473  161.1417 C.2     1  UNL1        0.4055
     31 O         143.3731  138.9880  162.5819 O.2     1  UNL1       -0.2262
     32 O         142.7044  137.8695  160.2480 O.3     1  UNL1       -0.4320
     33 C         142.3133  138.3890  158.8963 C.3     1  UNL1        0.2108
     34 C         142.3251  139.8879  158.9546 C.3     1  UNL1        0.1233
     35 C         141.9963  140.8168  157.8237 C.3     1  UNL1        0.0258
     36 C         141.9705  137.5561  157.6969 C.ar    1  UNL1        0.0207
     37 C         140.6077  137.6568  157.0784 C.ar    1  UNL1        0.0107
     38 C         140.2649  136.8238  155.8791 C.ar    1  UNL1        0.0583
     39 CL        138.9021  136.9245  155.2606 Cl      1  UNL1       -0.0822
     40 C         141.2850  135.8900  155.2981 C.ar    1  UNL1        0.0228
     41 C         142.6479  135.7892  155.9166 C.ar    1  UNL1        0.0583
     42 CL        143.6679  134.8555  155.3356 Cl      1  UNL1       -0.0822
     43 C         142.9906  136.6223  157.1160 C.ar    1  UNL1        0.0107
@<TRIPOS>UNITY_ATOM_ATTR
21 1
charge -1
@<TRIPOS>BOND
     1    23    24    1
     2    24     7    1
     3     7     8   ar
     4     8     9   ar
     5     9    10   ar
     6    10    13    1
     7    13    14   ar
     8    14    15   ar
     9    15    16   ar
    10    16    20    1
    11    20    21   ar
    12    20    22   ar
    13    16    17   ar
    14    17    18   ar
    15    18    19    1
    16    10    11   ar
    17    11    12   ar
    18    12     1    1
    19     1     2   ar
    20     2     3   ar
    21     3     4   ar
    22     4    25    1
    23    25    26    1
    24    25    27    1
    25     4     5   ar
    26     5     6   ar
    27     6    28    1
    28    28    29    1
    29    29    30   am
    30    30    31    2
    31    30    32    1
    32    32    33    1
    33    33    36    1
    34    36    37   ar
    35    37    38   ar
    36    38    39    1
    37    38    40   ar
    38    40    41   ar
    39    41    42    1
    40    41    43   ar
    41    33    34    1
    42    34    35    1
    43    12     7   ar
    44     6     1   ar
    45    34    29    1
    46    18    13   ar
    47    43    36   ar
