@<TRIPOS>MOLECULE
*****
 20 21 0 0 0
SMALL
GASTEIGER

@<TRIPOS>ATOM
      1 C         141.4125  141.7572  169.7353 C.ar    1  UNL1        0.1219
      2 C         140.1201  141.4846  170.4462 C.ar    1  UNL1        0.0230
      3 C         139.0967  140.5826  169.8223 C.ar    1  UNL1        0.0383
      4 C         139.3658  139.9533  168.4876 C.ar    1  UNL1        0.1387
      5 C         140.6582  140.2259  167.7767 C.ar    1  UNL1        0.0383
      6 C         141.6815  141.1279  168.4006 C.ar    1  UNL1        0.0230
      7 N         143.4592  143.5611  170.9831 N.3     1  UNL1       -0.2035
      8 S         142.4359  142.6591  170.3592 S.O2    1  UNL1        0.0572
      9 O         141.7487  142.5215  171.6854 O.2     1  UNL1       -0.1532
     10 O         143.1231  142.7968  169.0330 O.2     1  UNL1       -0.1532
     11 H         142.9894  144.3374  171.4488 H       1  UNL1        0.1442
     12 H         144.0792  143.9240  170.2590 H       1  UNL1        0.1442
     13 O         138.3424  139.0514  167.8637 O.3     1  UNL1       -0.4740
     14 C         138.1962  139.0020  166.3717 C.3     1  UNL1        0.2226
     15 C         138.4990  137.7338  165.6300 C.3     1  UNL1        0.1200
     16 N         139.5478  137.7243  164.5576 N.3     1  UNL1       -0.2696
     17 C         141.0318  137.7418  164.7756 C.3     1  UNL1        0.0722
     18 C         141.6980  137.7239  163.4318 C.3     1  UNL1        0.0188
     19 C         140.6257  137.6955  162.3833 C.3     1  UNL1        0.0188
     20 C         139.2968  137.6957  163.0791 C.3     1  UNL1        0.0722
@<TRIPOS>BOND
     1     7     8    1
     2     8     9    2
     3     8    10    2
     4     8     1    1
     5     1     2   ar
     6     2     3   ar
     7     3     4   ar
     8     4    13    1
     9    13    14    1
    10    14    15    1
    11    15    16    1
    12    16    17    1
    13    17    18    1
    14    18    19    1
    15    19    20    1
    16     4     5   ar
    17     5     6   ar
    18     6     1   ar
    19    20    16    1
    20     7    11    1
    21     7    12    1
@<TRIPOS>MOLECULE
*****
 20 21 0 0 0
SMALL
GASTEIGER

@<TRIPOS>ATOM
      1 C         141.2658  140.1156  169.1326 C.ar    1  UNL1        0.1219
      2 C         139.8068  140.1660  168.7884 C.ar    1  UNL1        0.0230
      3 C         139.3560  139.8733  167.3880 C.ar    1  UNL1        0.0383
      4 C         140.3643  139.5300  166.3318 C.ar    1  UNL1        0.1387
      5 C         141.8234  139.4795  166.6761 C.ar    1  UNL1        0.0383
      6 C         142.2741  139.7723  168.0765 C.ar    1  UNL1        0.0230
      7 N         142.1673  140.7011  171.9334 N.3     1  UNL1       -0.2035
      8 S         141.7166  140.4083  170.5330 S.O2    1  UNL1        0.0572
      9 O         143.1359  140.1320  170.1340 O.2     1  UNL1       -0.1532
     10 O         140.2973  140.6847  170.9321 O.2     1  UNL1       -0.1532
     11 H         142.7011  139.9091  172.2914 H       1  UNL1        0.1442
     12 H         141.3528  140.8582  172.5269 H       1  UNL1        0.1442
     13 O         139.9136  139.2372  164.9314 O.3     1  UNL1       -0.4740
     14 C         138.4797  139.4488  164.5454 C.3     1  UNL1        0.2226
     15 C         138.1389  140.3270  163.3781 C.3     1  UNL1        0.1200
     16 N         138.0662  141.8148  163.5549 N.3     1  UNL1       -0.2696
     17 C         138.3097  142.5639  164.8315 C.3     1  UNL1        0.0722
     18 C         138.1312  144.0267  164.5519 C.3     1  UNL1        0.0188
     19 C         137.7774  144.1817  163.1024 C.3     1  UNL1        0.0188
     20 C         137.7372  142.8147  162.4863 C.3     1  UNL1        0.0722
@<TRIPOS>BOND
     1     7     8    1
     2     8     9    2
     3     8    10    2
     4     8     1    1
     5     1     2   ar
     6     2     3   ar
     7     3     4   ar
     8     4    13    1
     9    13    14    1
    10    14    15    1
    11    15    16    1
    12    16    17    1
    13    17    18    1
    14    18    19    1
    15    19    20    1
    16     4     5   ar
    17     5     6   ar
    18     6     1   ar
    19    20    16    1
    20     7    11    1
    21     7    12    1
@<TRIPOS>MOLECULE
*****
 20 21 0 0 0
SMALL
GASTEIGER

@<TRIPOS>ATOM
      1 C         141.7526  141.8243  169.1773 C.ar    1  UNL1        0.1219
      2 C         140.3994  141.3221  169.5853 C.ar    1  UNL1        0.0230
      3 C         139.6267  140.4198  168.6694 C.ar    1  UNL1        0.0383
      4 C         140.2073  140.0196  167.3455 C.ar    1  UNL1        0.1387
      5 C         141.5605  140.5219  166.9375 C.ar    1  UNL1        0.0383
      6 C         142.3332  141.4242  167.8534 C.ar    1  UNL1        0.0230
      7 N         143.2978  143.6290  171.0091 N.3     1  UNL1       -0.2035
      8 S         142.5252  142.7266  170.0932 S.O2    1  UNL1        0.0572
      9 O         141.3728  142.7388  171.0533 O.2     1  UNL1       -0.1532
     10 O         143.6776  142.7144  169.1331 O.2     1  UNL1       -0.1532
     11 H         142.7477  144.4649  171.2065 H       1  UNL1        0.1442
     12 H         144.1748  143.8968  170.5623 H       1  UNL1        0.1442
     13 O         139.4347  139.1173  166.4296 O.3     1  UNL1       -0.4740
     14 C         138.2176  139.6326  165.7204 C.3     1  UNL1        0.2226
     15 C         138.3482  140.2537  164.3613 C.3     1  UNL1        0.1200
     16 N         138.2903  141.7449  164.2094 N.3     1  UNL1       -0.2696
     17 C         138.9559  142.7487  165.1036 C.3     1  UNL1        0.0722
     18 C         138.6337  144.1182  164.5836 C.3     1  UNL1        0.0188
     19 C         137.7690  143.9609  163.3680 C.3     1  UNL1        0.0188
     20 C         137.5568  142.4941  163.1368 C.3     1  UNL1        0.0722
@<TRIPOS>BOND
     1     7     8    1
     2     8     9    2
     3     8    10    2
     4     8     1    1
     5     1     2   ar
     6     2     3   ar
     7     3     4   ar
     8     4    13    1
     9    13    14    1
    10    14    15    1
    11    15    16    1
    12    16    17    1
    13    17    18    1
    14    18    19    1
    15    19    20    1
    16     4     5   ar
    17     5     6   ar
    18     6     1   ar
    19    20    16    1
    20     7    11    1
    21     7    12    1
@<TRIPOS>MOLECULE
*****
 20 21 0 0 0
SMALL
GASTEIGER

@<TRIPOS>ATOM
      1 C         140.7402  140.0568  169.1490 C.ar    1  UNL1        0.1219
      2 C         142.0419  139.8074  168.4466 C.ar    1  UNL1        0.0230
      3 C         142.0592  139.5476  166.9693 C.ar    1  UNL1        0.0383
      4 C         140.7748  139.5372  166.1945 C.ar    1  UNL1        0.1387
      5 C         139.4732  139.7866  166.8970 C.ar    1  UNL1        0.0383
      6 C         139.4559  140.0464  168.3742 C.ar    1  UNL1        0.0230
      7 N         140.7056  140.5764  172.1035 N.3     1  UNL1       -0.2035
      8 S         140.7229  140.3166  170.6262 S.O2    1  UNL1        0.0572
      9 O         139.2980  139.8525  170.6912 O.2     1  UNL1       -0.1532
     10 O         142.1478  140.7807  170.5613 O.2     1  UNL1       -0.1532
     11 H         139.9286  141.1971  172.3304 H       1  UNL1        0.1442
     12 H         141.5835  141.0148  172.3819 H       1  UNL1        0.1442
     13 O         140.7922  139.2774  164.7173 O.3     1  UNL1       -0.4740
     14 C         139.9321  140.0969  163.8015 C.3     1  UNL1        0.2226
     15 C         140.3097  141.5140  163.4867 C.3     1  UNL1        0.1200
     16 N         139.5316  142.6482  164.0852 N.3     1  UNL1       -0.2696
     17 C         138.1103  143.0071  163.7670 C.3     1  UNL1        0.0722
     18 C         137.7384  144.2033  164.5921 C.3     1  UNL1        0.0188
     19 C         138.9298  144.5837  165.4202 C.3     1  UNL1        0.0188
     20 C         140.0380  143.6226  165.1069 C.3     1  UNL1        0.0722
@<TRIPOS>BOND
     1     7     8    1
     2     8     9    2
     3     8    10    2
     4     8     1    1
     5     1     2   ar
     6     2     3   ar
     7     3     4   ar
     8     4    13    1
     9    13    14    1
    10    14    15    1
    11    15    16    1
    12    16    17    1
    13    17    18    1
    14    18    19    1
    15    19    20    1
    16     4     5   ar
    17     5     6   ar
    18     6     1   ar
    19    20    16    1
    20     7    11    1
    21     7    12    1
@<TRIPOS>MOLECULE
*****
 20 21 0 0 0
SMALL
GASTEIGER

@<TRIPOS>ATOM
      1 C         140.1237  141.3505  169.0417 C.ar    1  UNL1        0.1219
      2 C         139.3556  140.0939  168.7575 C.ar    1  UNL1        0.0230
      3 C         139.1253  139.6599  167.3403 C.ar    1  UNL1        0.0383
      4 C         139.6631  140.4826  166.2072 C.ar    1  UNL1        0.1387
      5 C         140.4312  141.7392  166.4914 C.ar    1  UNL1        0.0383
      6 C         140.6615  142.1732  167.9086 C.ar    1  UNL1        0.0230
      7 N         140.5843  142.2184  171.8763 N.3     1  UNL1       -0.2035
      8 S         140.3540  141.7845  170.4590 S.O2    1  UNL1        0.0572
      9 O         140.9428  143.0740  169.9685 O.2     1  UNL1       -0.1532
     10 O         139.7653  140.4950  170.9495 O.2     1  UNL1       -0.1532
     11 H         141.5663  142.4642  172.0013 H       1  UNL1        0.1442
     12 H         140.3413  141.4562  172.5090 H       1  UNL1        0.1442
     13 O         139.4328  140.0486  164.7899 O.3     1  UNL1       -0.4740
     14 C         138.1077  140.3012  164.1342 C.3     1  UNL1        0.2226
     15 C         137.9058  141.5317  163.3005 C.3     1  UNL1        0.1200
     16 N         138.4944  142.8398  163.7393 N.3     1  UNL1       -0.2696
     17 C         139.7692  143.4471  163.2330 C.3     1  UNL1        0.0722
     18 C         139.9743  144.7528  163.9422 C.3     1  UNL1        0.0188
     19 C         138.8262  144.9525  164.8868 C.3     1  UNL1        0.0188
     20 C         137.9117  143.7702  164.7614 C.3     1  UNL1        0.0722
@<TRIPOS>BOND
     1     7     8    1
     2     8     9    2
     3     8    10    2
     4     8     1    1
     5     1     2   ar
     6     2     3   ar
     7     3     4   ar
     8     4    13    1
     9    13    14    1
    10    14    15    1
    11    15    16    1
    12    16    17    1
    13    17    18    1
    14    18    19    1
    15    19    20    1
    16     4     5   ar
    17     5     6   ar
    18     6     1   ar
    19    20    16    1
    20     7    11    1
    21     7    12    1
@<TRIPOS>MOLECULE
*****
 20 21 0 0 0
SMALL
GASTEIGER

@<TRIPOS>ATOM
      1 C         142.6426  140.7240  168.9768 C.ar    1  UNL1        0.1219
      2 C         142.6200  139.4279  168.2220 C.ar    1  UNL1        0.0230
      3 C         142.7810  139.4256  166.7307 C.ar    1  UNL1        0.0383
      4 C         142.9646  140.7193  165.9941 C.ar    1  UNL1        0.1387
      5 C         142.9872  142.0153  166.7489 C.ar    1  UNL1        0.0383
      6 C         142.8262  142.0177  168.2402 C.ar    1  UNL1        0.0230
      7 N         142.3205  140.7287  171.9594 N.3     1  UNL1       -0.2035
      8 S         142.4815  140.7263  170.4681 S.O2    1  UNL1        0.0572
      9 O         143.3815  139.5304  170.5672 O.2     1  UNL1       -0.1532
     10 O         141.5815  141.9222  170.3691 O.2     1  UNL1       -0.1532
     11 H         141.9953  139.8124  172.2677 H       1  UNL1        0.1442
     12 H         141.6390  141.4389  172.2267 H       1  UNL1        0.1442
     13 O         143.1256  140.7169  164.5028 O.3     1  UNL1       -0.4740
     14 C         142.0268  140.1861  163.6306 C.3     1  UNL1        0.2226
     15 C         140.6039  140.5825  163.8922 C.3     1  UNL1        0.1200
     16 N         139.7427  139.7395  164.7853 N.3     1  UNL1       -0.2696
     17 C         139.3346  138.3185  164.5314 C.3     1  UNL1        0.0722
     18 C         138.4780  137.8702  165.6783 C.3     1  UNL1        0.0188
     19 C         138.3567  139.0142  166.6410 C.3     1  UNL1        0.0188
     20 C         139.1383  140.1694  166.0891 C.3     1  UNL1        0.0722
@<TRIPOS>BOND
     1     7     8    1
     2     8     9    2
     3     8    10    2
     4     8     1    1
     5     1     2   ar
     6     2     3   ar
     7     3     4   ar
     8     4    13    1
     9    13    14    1
    10    14    15    1
    11    15    16    1
    12    16    17    1
    13    17    18    1
    14    18    19    1
    15    19    20    1
    16     4     5   ar
    17     5     6   ar
    18     6     1   ar
    19    20    16    1
    20     7    11    1
    21     7    12    1
@<TRIPOS>MOLECULE
*****
 20 21 0 0 0
SMALL
GASTEIGER

@<TRIPOS>ATOM
      1 C         141.0085  140.1107  168.9340 C.ar    1  UNL1        0.1219
      2 C         139.8122  140.1989  168.0333 C.ar    1  UNL1        0.0230
      3 C         139.9814  140.0785  166.5478 C.ar    1  UNL1        0.0383
      4 C         141.3467  139.8698  165.9629 C.ar    1  UNL1        0.1387
      5 C         142.5430  139.7816  166.8635 C.ar    1  UNL1        0.0383
      6 C         142.3738  139.9021  168.3491 C.ar    1  UNL1        0.0230
      7 N         140.6702  140.3516  171.9051 N.3     1  UNL1       -0.2035
      8 S         140.8393  140.2312  170.4195 S.O2    1  UNL1        0.0572
      9 O         139.4554  139.6633  170.3080 O.2     1  UNL1       -0.1532
     10 O         142.2232  140.7990  170.5311 O.2     1  UNL1       -0.1532
     11 H         139.8295  140.8921  172.1089 H       1  UNL1        0.1442
     12 H         141.4824  140.8234  172.3026 H       1  UNL1        0.1442
     13 O         141.5159  139.7494  164.4773 O.3     1  UNL1       -0.4740
     14 C         142.0754  138.4896  163.8859 C.3     1  UNL1        0.2226
     15 C         143.3636  138.5290  163.1185 C.3     1  UNL1        0.1200
     16 N         144.1954  139.7773  163.1129 N.3     1  UNL1       -0.2696
     17 C         144.2364  140.8046  162.0206 C.3     1  UNL1        0.0722
     18 C         145.1985  141.8797  162.4312 C.3     1  UNL1        0.0188
     19 C         145.7521  141.5168  163.7773 C.3     1  UNL1        0.0188
     20 C         145.1322  140.2175  164.1986 C.3     1  UNL1        0.0722
@<TRIPOS>BOND
     1     7     8    1
     2     8     9    2
     3     8    10    2
     4     8     1    1
     5     1     2   ar
     6     2     3   ar
     7     3     4   ar
     8     4    13    1
     9    13    14    1
    10    14    15    1
    11    15    16    1
    12    16    17    1
    13    17    18    1
    14    18    19    1
    15    19    20    1
    16     4     5   ar
    17     5     6   ar
    18     6     1   ar
    19    20    16    1
    20     7    11    1
    21     7    12    1
@<TRIPOS>MOLECULE
*****
 20 21 0 0 0
SMALL
GASTEIGER

@<TRIPOS>ATOM
      1 C         142.6585  140.8346  168.9405 C.ar    1  UNL1        0.1219
      2 C         142.8853  142.1537  168.2633 C.ar    1  UNL1        0.0230
      3 C         143.0565  142.2126  166.7743 C.ar    1  UNL1        0.0383
      4 C         143.0009  140.9525  165.9625 C.ar    1  UNL1        0.1387
      5 C         142.7741  139.6335  166.6397 C.ar    1  UNL1        0.0383
      6 C         142.6029  139.5746  168.1287 C.ar    1  UNL1        0.0230
      7 N         142.3161  140.7168  171.9186 N.3     1  UNL1       -0.2035
      8 S         142.4873  140.7757  170.4296 S.O2    1  UNL1        0.0572
      9 O         141.6377  142.0109  170.3808 O.2     1  UNL1       -0.1532
     10 O         143.3369  139.5405  170.4783 O.2     1  UNL1       -0.1532
     11 H         142.6030  141.6053  172.3293 H       1  UNL1        0.1442
     12 H         142.8922  139.9652  172.2976 H       1  UNL1        0.1442
     13 O         143.1721  141.0115  164.4734 O.3     1  UNL1       -0.4740
     14 C         142.4497  142.0567  163.6762 C.3     1  UNL1        0.2226
     15 C         140.9888  141.8950  163.3769 C.3     1  UNL1        0.1200
     16 N         139.9954  142.8665  163.9420 N.3     1  UNL1       -0.2696
     17 C         138.5055  142.6933  163.9612 C.3     1  UNL1        0.0722
     18 C         137.9067  143.9014  164.6182 C.3     1  UNL1        0.0188
     19 C         139.0266  144.8214  165.0051 C.3     1  UNL1        0.0188
     20 C         140.3174  144.1818  164.5872 C.3     1  UNL1        0.0722
@<TRIPOS>BOND
     1     7     8    1
     2     8     9    2
     3     8    10    2
     4     8     1    1
     5     1     2   ar
     6     2     3   ar
     7     3     4   ar
     8     4    13    1
     9    13    14    1
    10    14    15    1
    11    15    16    1
    12    16    17    1
    13    17    18    1
    14    18    19    1
    15    19    20    1
    16     4     5   ar
    17     5     6   ar
    18     6     1   ar
    19    20    16    1
    20     7    11    1
    21     7    12    1
@<TRIPOS>MOLECULE
*****
 20 21 0 0 0
SMALL
GASTEIGER

@<TRIPOS>ATOM
      1 C         139.9067  140.6801  168.6777 C.ar    1  UNL1        0.1219
      2 C         139.2884  139.8958  167.5586 C.ar    1  UNL1        0.0230
      3 C         139.2755  140.4565  166.1674 C.ar    1  UNL1        0.0383
      4 C         139.8810  141.8016  165.8953 C.ar    1  UNL1        0.1387
      5 C         140.4993  142.5860  167.0144 C.ar    1  UNL1        0.0383
      6 C         140.5122  142.0252  168.4056 C.ar    1  UNL1        0.0230
      7 N         139.9325  139.5587  171.4601 N.3     1  UNL1       -0.2035
      8 S         139.9196  140.1194  170.0689 S.O2    1  UNL1        0.0572
      9 O         138.5699  140.7220  170.3242 O.2     1  UNL1       -0.1532
     10 O         141.2693  139.5169  169.8135 O.2     1  UNL1       -0.1532
     11 H         139.7776  140.3109  172.1313 H       1  UNL1        0.1442
     12 H         140.8358  139.1213  171.6420 H       1  UNL1        0.1442
     13 O         139.8681  142.3624  164.5041 O.3     1  UNL1       -0.4740
     14 C         141.1339  142.4037  163.7004 C.3     1  UNL1        0.2226
     15 C         141.6217  141.1671  163.0055 C.3     1  UNL1        0.1200
     16 N         141.8082  139.8958  163.7795 N.3     1  UNL1       -0.2696
     17 C         141.0837  138.6042  163.5413 C.3     1  UNL1        0.0722
     18 C         141.5795  137.6031  164.5422 C.3     1  UNL1        0.0188
     19 C         142.6105  138.2760  165.3991 C.3     1  UNL1        0.0188
     20 C         142.7518  139.6930  164.9278 C.3     1  UNL1        0.0722
@<TRIPOS>BOND
     1     7     8    1
     2     8     9    2
     3     8    10    2
     4     8     1    1
     5     1     2   ar
     6     2     3   ar
     7     3     4   ar
     8     4    13    1
     9    13    14    1
    10    14    15    1
    11    15    16    1
    12    16    17    1
    13    17    18    1
    14    18    19    1
    15    19    20    1
    16     4     5   ar
    17     5     6   ar
    18     6     1   ar
    19    20    16    1
    20     7    11    1
    21     7    12    1
