@<TRIPOS>MOLECULE
*****
 27 30 0 0 0
SMALL
GASTEIGER

@<TRIPOS>ATOM
      1 C         140.7967  145.5137  162.7909 C.3     1  UNL1        0.1123
      2 N         141.6440  144.4631  163.4456 N.am    1  UNL1       -0.2606
      3 C         143.0096  144.0291  163.0020 C.3     1  UNL1        0.1169
      4 C         143.4840  142.9600  163.9410 C.3     1  UNL1        0.1212
      5 N         142.4117  142.7333  164.9650 N.am    1  UNL1       -0.2413
      6 C         141.2744  143.6623  164.6589 C.2     1  UNL1        0.3111
      7 O         139.9928  143.7713  165.4305 O.2     1  UNL1       -0.2520
      8 C         142.4668  141.7501  166.0967 C.ar    1  UNL1        0.0562
      9 C         142.0693  140.3218  165.8693 C.ar    1  UNL1        0.0150
     10 C         142.1244  139.3387  167.0009 C.ar    1  UNL1        0.0021
     11 C         142.5771  139.7840  168.3598 C.ar    1  UNL1        0.0115
     12 C         142.9747  141.2124  168.5872 C.ar    1  UNL1        0.0589
     13 CL        143.4273  141.6576  169.9461 Cl      1  UNL1       -0.0822
     14 C         142.9195  142.1954  167.4557 C.ar    1  UNL1        0.0263
     15 C         139.3818  145.2015  162.4029 C.3     1  UNL1        0.0942
     16 C         139.9141  143.8817  160.2293 C.3     1  UNL1        0.0899
     17 N         139.0935  144.0611  161.4720 N.3     1  UNL1       -0.2658
     18 C         137.9848  143.1003  161.7839 C.3     1  UNL1        0.1057
     19 C         138.2571  141.8880  162.6243 C.ar    1  UNL1        0.0234
     20 C         137.7641  141.6548  164.0216 C.ar    1  UNL1        0.0040
     21 C         138.2725  140.3187  164.4757 C.ar    1  UNL1        0.0062
     22 C         138.1047  139.5652  165.7618 C.ar    1  UNL1        0.0005
     23 C         138.7442  138.2190  165.9312 C.ar    1  UNL1        0.0000
     24 C         139.5516  137.6263  164.8145 C.ar    1  UNL1        0.0005
     25 C         139.7194  138.3799  163.5284 C.ar    1  UNL1        0.0065
     26 C         139.0799  139.7260  163.3591 C.ar    1  UNL1        0.0292
     27 S         139.0703  140.6959  162.2148 S.2     1  UNL1       -0.0899
@<TRIPOS>BOND
     1    16    17    1
     2    17    15    1
     3    15     1    1
     4     1     2    1
     5     2     3    1
     6     3     4    1
     7     4     5    1
     8     5     8    1
     9     8     9   ar
    10     9    10   ar
    11    10    11   ar
    12    11    12   ar
    13    12    13    1
    14    12    14   ar
    15     5     6   am
    16     6     7    2
    17    17    18    1
    18    18    19    1
    19    19    20   ar
    20    20    21   ar
    21    21    22   ar
    22    22    23   ar
    23    23    24   ar
    24    24    25   ar
    25    25    26   ar
    26    26    27   ar
    27     6     2   am
    28    27    19   ar
    29    14     8   ar
    30    26    21   ar
@<TRIPOS>MOLECULE
*****
 27 30 0 0 0
SMALL
GASTEIGER

@<TRIPOS>ATOM
      1 C         140.0583  145.1886  163.0767 C.3     1  UNL1        0.1123
      2 N         140.2584  144.1872  164.1755 N.am    1  UNL1       -0.2606
      3 C         139.5861  144.2033  165.5163 C.3     1  UNL1        0.1169
      4 C         140.0781  143.0200  166.2958 C.3     1  UNL1        0.1212
      5 N         141.0544  142.2725  165.4368 N.am    1  UNL1       -0.2413
      6 C         141.1659  142.9938  164.1263 C.2     1  UNL1        0.3111
      7 O         142.0326  142.5923  162.9697 O.2     1  UNL1       -0.2520
      8 C         141.7902  141.0229  165.8207 C.ar    1  UNL1        0.0562
      9 C         142.4429  140.1821  164.7638 C.ar    1  UNL1        0.0150
     10 C         143.1786  138.9327  165.1477 C.ar    1  UNL1        0.0021
     11 C         143.2617  138.5239  166.5886 C.ar    1  UNL1        0.0115
     12 C         142.6090  139.3647  167.6455 C.ar    1  UNL1        0.0589
     13 CL        142.6920  138.9560  169.0863 Cl      1  UNL1       -0.0822
     14 C         141.8733  140.6142  167.2616 C.ar    1  UNL1        0.0263
     15 C         138.9882  144.9701  162.0486 C.3     1  UNL1        0.0942
     16 C         140.1335  143.7467  160.0633 C.3     1  UNL1        0.0899
     17 N         139.0695  143.7953  161.1194 N.3     1  UNL1       -0.2658
     18 C         138.0867  142.6693  161.2463 C.3     1  UNL1        0.1057
     19 C         138.3322  141.5673  162.2339 C.ar    1  UNL1        0.0234
     20 C         137.8378  141.5255  163.6494 C.ar    1  UNL1        0.0040
     21 C         138.3153  140.2459  164.2697 C.ar    1  UNL1        0.0062
     22 C         138.1331  139.6661  165.6410 C.ar    1  UNL1        0.0005
     23 C         138.7405  138.3372  165.9801 C.ar    1  UNL1        0.0000
     24 C         139.5299  137.5881  164.9478 C.ar    1  UNL1        0.0005
     25 C         139.7121  138.1679  163.5765 C.ar    1  UNL1        0.0065
     26 C         139.1047  139.4968  163.2374 C.ar    1  UNL1        0.0292
     27 S         139.1152  140.3135  161.9792 S.2     1  UNL1       -0.0899
@<TRIPOS>BOND
     1    16    17    1
     2    17    15    1
     3    15     1    1
     4     1     2    1
     5     2     3    1
     6     3     4    1
     7     4     5    1
     8     5     8    1
     9     8     9   ar
    10     9    10   ar
    11    10    11   ar
    12    11    12   ar
    13    12    13    1
    14    12    14   ar
    15     5     6   am
    16     6     7    2
    17    17    18    1
    18    18    19    1
    19    19    20   ar
    20    20    21   ar
    21    21    22   ar
    22    22    23   ar
    23    23    24   ar
    24    24    25   ar
    25    25    26   ar
    26    26    27   ar
    27     6     2   am
    28    27    19   ar
    29    14     8   ar
    30    26    21   ar
@<TRIPOS>MOLECULE
*****
 27 30 0 0 0
SMALL
GASTEIGER

@<TRIPOS>ATOM
      1 C         140.5286  145.4347  162.8727 C.3     1  UNL1        0.1123
      2 N         140.9552  144.4536  163.9242 N.am    1  UNL1       -0.2606
      3 C         142.3188  143.8436  164.0596 C.3     1  UNL1        0.1169
      4 C         142.2994  142.9232  165.2439 C.3     1  UNL1        0.1212
      5 N         140.9238  142.9645  165.8404 N.am    1  UNL1       -0.2413
      6 C         140.0929  143.9103  165.0248 C.2     1  UNL1        0.3111
      7 O         138.6528  144.2527  165.2673 O.2     1  UNL1       -0.2520
      8 C         140.4603  142.1950  167.0418 C.ar    1  UNL1        0.0562
      9 C         140.0028  140.7743  166.8918 C.ar    1  UNL1        0.0150
     10 C         139.5393  140.0049  168.0931 C.ar    1  UNL1        0.0021
     11 C         139.5333  140.6562  169.4444 C.ar    1  UNL1        0.0115
     12 C         139.9907  142.0768  169.5943 C.ar    1  UNL1        0.0589
     13 CL        139.9846  142.7280  170.9455 Cl      1  UNL1       -0.0822
     14 C         140.4542  142.8462  168.3931 C.ar    1  UNL1        0.0263
     15 C         139.2645  145.2028  162.0993 C.3     1  UNL1        0.0942
     16 C         139.8815  143.8516  159.9677 C.3     1  UNL1        0.0899
     17 N         139.1179  143.9730  161.2531 N.3     1  UNL1       -0.2658
     18 C         138.2077  142.8645  161.6922 C.3     1  UNL1        0.1057
     19 C         138.7733  141.6578  162.3806 C.ar    1  UNL1        0.0234
     20 C         140.2260  141.2959  162.4737 C.ar    1  UNL1        0.0040
     21 C         140.3361  140.0156  163.2474 C.ar    1  UNL1        0.0062
     22 C         141.5183  139.1852  163.6510 C.ar    1  UNL1        0.0005
     23 C         141.3159  137.9255  164.4397 C.ar    1  UNL1        0.0000
     24 C         139.9312  137.4961  164.8247 C.ar    1  UNL1        0.0005
     25 C         138.7490  138.3264  164.4211 C.ar    1  UNL1        0.0065
     26 C         138.9515  139.5861  163.6324 C.ar    1  UNL1        0.0292
     27 S         137.9856  140.6011  163.0967 S.2     1  UNL1       -0.0899
@<TRIPOS>BOND
     1    16    17    1
     2    17    15    1
     3    15     1    1
     4     1     2    1
     5     2     3    1
     6     3     4    1
     7     4     5    1
     8     5     8    1
     9     8     9   ar
    10     9    10   ar
    11    10    11   ar
    12    11    12   ar
    13    12    13    1
    14    12    14   ar
    15     5     6   am
    16     6     7    2
    17    17    18    1
    18    18    19    1
    19    19    20   ar
    20    20    21   ar
    21    21    22   ar
    22    22    23   ar
    23    23    24   ar
    24    24    25   ar
    25    25    26   ar
    26    26    27   ar
    27     6     2   am
    28    27    19   ar
    29    14     8   ar
    30    26    21   ar
@<TRIPOS>MOLECULE
*****
 27 30 0 0 0
SMALL
GASTEIGER

@<TRIPOS>ATOM
      1 C         144.7674  140.9661  163.8334 C.3     1  UNL1        0.1123
      2 N         143.8912  140.4886  164.9535 N.am    1  UNL1       -0.2606
      3 C         143.6921  139.0615  165.3702 C.3     1  UNL1        0.1169
      4 C         142.7381  139.0454  166.5276 C.3     1  UNL1        0.1212
      5 N         142.3477  140.4626  166.8262 N.am    1  UNL1       -0.2413
      6 C         143.0604  141.3547  165.8533 C.2     1  UNL1        0.3111
      7 O         142.9598  142.8500  165.7912 O.2     1  UNL1       -0.2520
      8 C         141.4093  140.9095  167.9079 C.ar    1  UNL1        0.0562
      9 C         140.4673  139.9262  168.5370 C.ar    1  UNL1        0.0150
     10 C         139.5290  140.3730  169.6186 C.ar    1  UNL1        0.0021
     11 C         139.5327  141.8032  170.0710 C.ar    1  UNL1        0.0115
     12 C         140.4747  142.7865  169.4419 C.ar    1  UNL1        0.0589
     13 CL        140.4784  144.2165  169.8944 Cl      1  UNL1       -0.0822
     14 C         141.4130  142.3396  168.3603 C.ar    1  UNL1        0.0263
     15 C         144.5933  140.4047  162.4534 C.3     1  UNL1        0.0942
     16 C         144.1463  142.3728  160.8172 C.3     1  UNL1        0.0899
     17 N         143.6986  141.0981  161.4690 N.3     1  UNL1       -0.2658
     18 C         142.3564  140.5169  161.1366 C.3     1  UNL1        0.1057
     19 C         141.4223  140.1090  162.2370 C.ar    1  UNL1        0.0234
     20 C         141.1713  138.7065  162.7060 C.ar    1  UNL1        0.0040
     21 C         140.1690  138.7628  163.8206 C.ar    1  UNL1        0.0062
     22 C         139.5443  137.6909  164.6636 C.ar    1  UNL1        0.0005
     23 C         138.5511  138.0564  165.7266 C.ar    1  UNL1        0.0000
     24 C         138.1826  139.4937  165.9465 C.ar    1  UNL1        0.0005
     25 C         138.8073  140.5655  165.1034 C.ar    1  UNL1        0.0065
     26 C         139.8005  140.2001  164.0405 C.ar    1  UNL1        0.0292
     27 S         140.5751  141.0321  163.0618 S.2     1  UNL1       -0.0899
@<TRIPOS>BOND
     1    16    17    1
     2    17    15    1
     3    15     1    1
     4     1     2    1
     5     2     3    1
     6     3     4    1
     7     4     5    1
     8     5     8    1
     9     8     9   ar
    10     9    10   ar
    11    10    11   ar
    12    11    12   ar
    13    12    13    1
    14    12    14   ar
    15     5     6   am
    16     6     7    2
    17    17    18    1
    18    18    19    1
    19    19    20   ar
    20    20    21   ar
    21    21    22   ar
    22    22    23   ar
    23    23    24   ar
    24    24    25   ar
    25    25    26   ar
    26    26    27   ar
    27     6     2   am
    28    27    19   ar
    29    14     8   ar
    30    26    21   ar
@<TRIPOS>MOLECULE
*****
 27 30 0 0 0
SMALL
GASTEIGER

@<TRIPOS>ATOM
      1 C         140.0571  143.4766  160.1658 C.3     1  UNL1        0.1123
      2 N         139.3697  142.6994  161.2492 N.am    1  UNL1       -0.2606
      3 C         138.0446  143.0325  161.8681 C.3     1  UNL1        0.1169
      4 C         137.7427  141.9918  162.9053 C.3     1  UNL1        0.1212
      5 N         138.8812  141.0155  162.9273 N.am    1  UNL1       -0.2413
      6 C         139.8869  141.4528  161.9038 C.2     1  UNL1        0.3111
      7 O         141.1821  140.7644  161.5900 O.2     1  UNL1       -0.2520
      8 C         138.9944  139.8128  163.8167 C.ar    1  UNL1        0.0562
      9 C         139.9655  138.7201  163.4806 C.ar    1  UNL1        0.0150
     10 C         140.0786  137.5176  164.3700 C.ar    1  UNL1        0.0021
     11 C         139.2207  137.4077  165.5955 C.ar    1  UNL1        0.0115
     12 C         138.2496  138.5004  165.9316 C.ar    1  UNL1        0.0589
     13 CL        137.3917  138.3906  167.1571 Cl      1  UNL1       -0.0822
     14 C         138.1365  139.7030  165.0422 C.ar    1  UNL1        0.0263
     15 C         141.1356  144.4585  160.5160 C.3     1  UNL1        0.0942
     16 C         139.9453  146.2258  162.0026 C.3     1  UNL1        0.0899
     17 N         141.0542  145.2372  161.7955 N.3     1  UNL1       -0.2658
     18 C         142.0818  145.0273  162.8679 C.3     1  UNL1        0.1057
     19 C         141.9301  143.8957  163.8408 C.ar    1  UNL1        0.0234
     20 C         142.8347  142.7048  163.9561 C.ar    1  UNL1        0.0040
     21 C         142.3109  141.8294  165.0558 C.ar    1  UNL1        0.0062
     22 C         142.7937  140.5245  165.6161 C.ar    1  UNL1        0.0005
     23 C         142.0481  139.8695  166.7409 C.ar    1  UNL1        0.0000
     24 C         140.8197  140.5195  167.3053 C.ar    1  UNL1        0.0005
     25 C         140.3369  141.8244  166.7449 C.ar    1  UNL1        0.0065
     26 C         141.0825  142.4794  165.6202 C.ar    1  UNL1        0.0292
     27 S         140.8471  143.7564  164.8693 S.2     1  UNL1       -0.0899
@<TRIPOS>BOND
     1    16    17    1
     2    17    15    1
     3    15     1    1
     4     1     2    1
     5     2     3    1
     6     3     4    1
     7     4     5    1
     8     5     8    1
     9     8     9   ar
    10     9    10   ar
    11    10    11   ar
    12    11    12   ar
    13    12    13    1
    14    12    14   ar
    15     5     6   am
    16     6     7    2
    17    17    18    1
    18    18    19    1
    19    19    20   ar
    20    20    21   ar
    21    21    22   ar
    22    22    23   ar
    23    23    24   ar
    24    24    25   ar
    25    25    26   ar
    26    26    27   ar
    27     6     2   am
    28    27    19   ar
    29    14     8   ar
    30    26    21   ar
@<TRIPOS>MOLECULE
*****
 27 30 0 0 0
SMALL
GASTEIGER

@<TRIPOS>ATOM
      1 C         142.5040  143.0141  161.9495 C.3     1  UNL1        0.1123
      2 N         142.4058  142.0617  163.1043 N.am    1  UNL1       -0.2606
      3 C         142.7540  140.6030  163.0763 C.3     1  UNL1        0.1169
      4 C         142.5056  140.0407  164.4445 C.3     1  UNL1        0.1212
      5 N         142.0038  141.1520  165.3182 N.am    1  UNL1       -0.2413
      6 C         141.9422  142.4012  164.4899 C.2     1  UNL1        0.3111
      7 O         141.4953  143.7523  164.9640 O.2     1  UNL1       -0.2520
      8 C         141.6294  141.0348  166.7661 C.ar    1  UNL1        0.0562
      9 C         140.6523  142.0004  167.3686 C.ar    1  UNL1        0.0150
     10 C         140.2780  141.8832  168.8164 C.ar    1  UNL1        0.0021
     11 C         140.8807  140.8005  169.6616 C.ar    1  UNL1        0.0115
     12 C         141.8578  139.8349  169.0591 C.ar    1  UNL1        0.0589
     13 CL        142.4605  138.7523  169.9043 Cl      1  UNL1       -0.0822
     14 C         142.2322  139.9521  167.6113 C.ar    1  UNL1        0.0263
     15 C         141.3274  143.2153  161.0412 C.3     1  UNL1        0.0942
     16 C         139.9879  145.1906  162.0677 C.3     1  UNL1        0.0899
     17 N         140.0453  143.7711  161.5866 N.3     1  UNL1       -0.2658
     18 C         138.8207  142.9073  161.6507 C.3     1  UNL1        0.1057
     19 C         138.7645  141.7558  162.6104 C.ar    1  UNL1        0.0234
     20 C         138.3302  141.8237  164.0446 C.ar    1  UNL1        0.0040
     21 C         138.4300  140.4442  164.6250 C.ar    1  UNL1        0.0062
     22 C         138.1333  139.9073  165.9938 C.ar    1  UNL1        0.0005
     23 C         138.3327  138.4499  166.2872 C.ar    1  UNL1        0.0000
     24 C         138.8288  137.5293  165.2118 C.ar    1  UNL1        0.0005
     25 C         139.1255  138.0662  163.8430 C.ar    1  UNL1        0.0065
     26 C         138.9261  139.5236  163.5496 C.ar    1  UNL1        0.0292
     27 S         139.1328  140.3343  162.3045 S.2     1  UNL1       -0.0899
@<TRIPOS>BOND
     1    16    17    1
     2    17    15    1
     3    15     1    1
     4     1     2    1
     5     2     3    1
     6     3     4    1
     7     4     5    1
     8     5     8    1
     9     8     9   ar
    10     9    10   ar
    11    10    11   ar
    12    11    12   ar
    13    12    13    1
    14    12    14   ar
    15     5     6   am
    16     6     7    2
    17    17    18    1
    18    18    19    1
    19    19    20   ar
    20    20    21   ar
    21    21    22   ar
    22    22    23   ar
    23    23    24   ar
    24    24    25   ar
    25    25    26   ar
    26    26    27   ar
    27     6     2   am
    28    27    19   ar
    29    14     8   ar
    30    26    21   ar
@<TRIPOS>MOLECULE
*****
 27 30 0 0 0
SMALL
GASTEIGER

@<TRIPOS>ATOM
      1 C         143.0232  144.7094  163.0604 C.3     1  UNL1        0.1123
      2 N         141.9091  144.2610  163.9593 N.am    1  UNL1       -0.2606
      3 C         140.4833  144.7224  163.8937 C.3     1  UNL1        0.1169
      4 C         139.7183  144.0190  164.9753 C.3     1  UNL1        0.1212
      5 N         140.6712  143.1229  165.7094 N.am    1  UNL1       -0.2413
      6 C         142.0253  143.2724  165.0815 C.2     1  UNL1        0.3111
      7 O         143.2759  142.5587  165.5019 O.2     1  UNL1       -0.2520
      8 C         140.3301  142.2334  166.8681 C.ar    1  UNL1        0.0562
      9 C         139.8270  140.8418  166.6226 C.ar    1  UNL1        0.0150
     10 C         139.4859  139.9524  167.7813 C.ar    1  UNL1        0.0021
     11 C         139.6479  140.4545  169.1854 C.ar    1  UNL1        0.0115
     12 C         140.1510  141.8461  169.4309 C.ar    1  UNL1        0.0589
     13 CL        140.3130  142.3483  170.8350 Cl      1  UNL1       -0.0822
     14 C         140.4921  142.7356  168.2723 C.ar    1  UNL1        0.0263
     15 C         143.9545  143.6989  162.4591 C.3     1  UNL1        0.0942
     16 C         144.5248  142.4755  160.2392 C.3     1  UNL1        0.0899
     17 N         143.5198  142.8913  161.2721 N.3     1  UNL1       -0.2658
     18 C         142.0801  142.4994  161.1182 C.3     1  UNL1        0.1057
     19 C         141.5181  141.3728  161.9336 C.ar    1  UNL1        0.0234
     20 C         142.3121  140.3697  162.7169 C.ar    1  UNL1        0.0040
     21 C         141.3482  139.4285  163.3763 C.ar    1  UNL1        0.0062
     22 C         141.5563  138.2422  164.2703 C.ar    1  UNL1        0.0005
     23 C         140.3748  137.4772  164.7887 C.ar    1  UNL1        0.0000
     24 C         138.9851  137.8986  164.4130 C.ar    1  UNL1        0.0005
     25 C         138.7769  139.0849  163.5190 C.ar    1  UNL1        0.0065
     26 C         139.9584  139.8498  163.0007 C.ar    1  UNL1        0.0292
     27 S         140.0635  141.0515  162.1091 S.2     1  UNL1       -0.0899
@<TRIPOS>BOND
     1    16    17    1
     2    17    15    1
     3    15     1    1
     4     1     2    1
     5     2     3    1
     6     3     4    1
     7     4     5    1
     8     5     8    1
     9     8     9   ar
    10     9    10   ar
    11    10    11   ar
    12    11    12   ar
    13    12    13    1
    14    12    14   ar
    15     5     6   am
    16     6     7    2
    17    17    18    1
    18    18    19    1
    19    19    20   ar
    20    20    21   ar
    21    21    22   ar
    22    22    23   ar
    23    23    24   ar
    24    24    25   ar
    25    25    26   ar
    26    26    27   ar
    27     6     2   am
    28    27    19   ar
    29    14     8   ar
    30    26    21   ar
@<TRIPOS>MOLECULE
*****
 27 30 0 0 0
SMALL
GASTEIGER

@<TRIPOS>ATOM
      1 C         138.2476  141.5984  160.9894 C.3     1  UNL1        0.1123
      2 N         139.4062  141.8573  161.9064 N.am    1  UNL1       -0.2606
      3 C         140.6998  142.5157  161.5284 C.3     1  UNL1        0.1169
      4 C         141.5676  142.5686  162.7508 C.3     1  UNL1        0.1212
      5 N         140.8102  141.9429  163.8842 N.am    1  UNL1       -0.2413
      6 C         139.4743  141.5033  163.3625 C.2     1  UNL1        0.3111
      7 O         138.3960  140.8281  164.1571 O.2     1  UNL1       -0.2520
      8 C         141.3022  141.7845  165.2924 C.ar    1  UNL1        0.0562
      9 C         142.6288  142.3593  165.6925 C.ar    1  UNL1        0.0150
     10 C         143.1207  142.2009  167.1006 C.ar    1  UNL1        0.0021
     11 C         142.2862  141.4678  168.1087 C.ar    1  UNL1        0.0115
     12 C         140.9597  140.8931  167.7086 C.ar    1  UNL1        0.0589
     13 CL        140.1253  140.1600  168.7166 Cl      1  UNL1       -0.0822
     14 C         140.4677  141.0515  166.3005 C.ar    1  UNL1        0.0263
     15 C         137.8291  140.1897  160.6892 C.3     1  UNL1        0.0942
     16 C         139.4058  139.3201  158.8162 C.3     1  UNL1        0.0899
     17 N         138.8397  139.1951  160.1997 N.3     1  UNL1       -0.2658
     18 C         139.2843  138.0757  161.0936 C.3     1  UNL1        0.1057
     19 C         140.4177  138.2870  162.0531 C.ar    1  UNL1        0.0234
     20 C         141.7223  138.9590  161.7424 C.ar    1  UNL1        0.0040
     21 C         142.5565  138.9508  162.9890 C.ar    1  UNL1        0.0062
     22 C         143.9325  139.4723  163.2793 C.ar    1  UNL1        0.0005
     23 C         144.5196  139.3168  164.6508 C.ar    1  UNL1        0.0000
     24 C         143.7306  138.6396  165.7320 C.ar    1  UNL1        0.0005
     25 C         142.3546  138.1181  165.4417 C.ar    1  UNL1        0.0065
     26 C         141.7675  138.2736  164.0702 C.ar    1  UNL1        0.0292
     27 S         140.4457  137.8634  163.4917 S.2     1  UNL1       -0.0899
@<TRIPOS>BOND
     1    16    17    1
     2    17    15    1
     3    15     1    1
     4     1     2    1
     5     2     3    1
     6     3     4    1
     7     4     5    1
     8     5     8    1
     9     8     9   ar
    10     9    10   ar
    11    10    11   ar
    12    11    12   ar
    13    12    13    1
    14    12    14   ar
    15     5     6   am
    16     6     7    2
    17    17    18    1
    18    18    19    1
    19    19    20   ar
    20    20    21   ar
    21    21    22   ar
    22    22    23   ar
    23    23    24   ar
    24    24    25   ar
    25    25    26   ar
    26    26    27   ar
    27     6     2   am
    28    27    19   ar
    29    14     8   ar
    30    26    21   ar
@<TRIPOS>MOLECULE
*****
 27 30 0 0 0
SMALL
GASTEIGER

@<TRIPOS>ATOM
      1 C         140.6980  137.5587  162.7926 C.3     1  UNL1        0.1123
      2 N         140.1032  138.3946  163.8870 N.am    1  UNL1       -0.2606
      3 C         138.7259  138.9886  163.8932 C.3     1  UNL1        0.1169
      4 C         138.5527  139.7442  165.1773 C.3     1  UNL1        0.1212
      5 N         139.8231  139.6172  165.9647 N.am    1  UNL1       -0.2413
      6 C         140.7814  138.7831  165.1672 C.2     1  UNL1        0.3111
      7 O         142.1734  138.4040  165.5779 O.2     1  UNL1       -0.2520
      8 C         140.0886  140.2188  167.3130 C.ar    1  UNL1        0.0562
      9 C         139.1373  139.9701  168.4457 C.ar    1  UNL1        0.0150
     10 C         139.4029  140.5717  169.7939 C.ar    1  UNL1        0.0021
     11 C         140.6198  141.4219  170.0093 C.ar    1  UNL1        0.0115
     12 C         141.5711  141.6705  168.8765 C.ar    1  UNL1        0.0589
     13 CL        142.7879  142.5207  169.0919 Cl      1  UNL1       -0.0822
     14 C         141.3055  141.0690  167.5284 C.ar    1  UNL1        0.0263
     15 C         141.5345  138.2030  161.7271 C.3     1  UNL1        0.0942
     16 C         139.9579  138.5306  159.6882 C.3     1  UNL1        0.0899
     17 N         140.8935  139.1022  160.7118 N.3     1  UNL1       -0.2658
     18 C         141.1883  140.5729  160.7201 C.3     1  UNL1        0.1057
     19 C         140.5592  141.4581  161.7549 C.ar    1  UNL1        0.0234
     20 C         141.1797  141.8715  163.0564 C.ar    1  UNL1        0.0040
     21 C         140.2032  142.7542  163.7758 C.ar    1  UNL1        0.0062
     22 C         140.2705  143.4547  165.1004 C.ar    1  UNL1        0.0005
     23 C         139.1137  144.2873  165.5680 C.ar    1  UNL1        0.0000
     24 C         137.8897  144.4194  164.7110 C.ar    1  UNL1        0.0005
     25 C         137.8225  143.7188  163.3864 C.ar    1  UNL1        0.0065
     26 C         138.9792  142.8862  162.9188 C.ar    1  UNL1        0.0292
     27 S         139.1993  142.0852  161.6698 S.2     1  UNL1       -0.0899
@<TRIPOS>BOND
     1    16    17    1
     2    17    15    1
     3    15     1    1
     4     1     2    1
     5     2     3    1
     6     3     4    1
     7     4     5    1
     8     5     8    1
     9     8     9   ar
    10     9    10   ar
    11    10    11   ar
    12    11    12   ar
    13    12    13    1
    14    12    14   ar
    15     5     6   am
    16     6     7    2
    17    17    18    1
    18    18    19    1
    19    19    20   ar
    20    20    21   ar
    21    21    22   ar
    22    22    23   ar
    23    23    24   ar
    24    24    25   ar
    25    25    26   ar
    26    26    27   ar
    27     6     2   am
    28    27    19   ar
    29    14     8   ar
    30    26    21   ar
