@<TRIPOS>MOLECULE
*****
 36 40 0 0 0
SMALL
GASTEIGER

@<TRIPOS>ATOM
      1 N         142.8644  141.6549  161.2803 N.3     1  UNL1       -0.2695
      2 C         143.2999  141.5058  162.7079 C.3     1  UNL1        0.0939
      3 C         142.9027  140.2889  163.4900 C.3     1  UNL1        0.1107
      4 N         142.0700  139.2213  162.8444 N.am    1  UNL1       -0.2764
      5 C         141.6728  138.0045  163.6265 C.2     1  UNL1        0.2301
      6 O         140.8401  136.9368  162.9809 O.2     1  UNL1       -0.2745
      7 C         141.6345  139.3705  161.4168 C.3     1  UNL1        0.1107
      8 C         142.0317  140.5872  160.6348 C.3     1  UNL1        0.0939
      9 C         143.2616  142.8717  160.4983 C.3     1  UNL1        0.0769
     10 C         142.4265  144.1156  160.5710 C.3     1  UNL1        0.0437
     11 O         138.4447  145.3961  166.3275 O.2     1  UNL1       -0.2449
     12 C         138.4315  144.7651  164.9667 C.2     1  UNL1        0.3413
     13 O         137.2655  144.0701  164.3284 O.3     1  UNL1       -0.4404
     14 C         137.6954  143.5937  162.9726 C.3     1  UNL1        0.2356
     15 C         139.1270  143.9943  162.7730 C.ar    1  UNL1        0.0272
     16 C         140.0752  143.7934  161.6282 C.ar    1  UNL1       -0.0047
     17 C         141.4783  144.3165  161.7158 C.ar    1  UNL1       -0.0210
     18 C         141.9332  145.0404  162.9483 C.ar    1  UNL1       -0.0040
     19 C         140.9851  145.2413  164.0931 C.ar    1  UNL1        0.0059
     20 C         139.5820  144.7183  164.0054 C.ar    1  UNL1        0.0751
     21 C         142.1083  137.8554  165.0541 C.3     1  UNL1        0.1115
     22 C         141.6809  138.8648  166.0780 C.ar    1  UNL1       -0.0091
     23 C         142.6552  139.3408  167.1143 C.ar    1  UNL1       -0.0023
     24 C         142.2278  140.3502  168.1382 C.ar    1  UNL1        0.0189
     25 C         140.8259  140.8837  168.1256 C.ar    1  UNL1        0.0862
     26 C         139.8515  140.4078  167.0893 C.ar    1  UNL1        0.0228
     27 C         140.2790  139.3984  166.0655 C.ar    1  UNL1        0.0694
     28 N         140.3984  141.8932  169.1495 N.ar    1  UNL1       -0.1886
     29 C         140.4868  143.3839  169.0083 C.ar    1  UNL1        0.2258
     30 N         139.9506  144.0013  170.2658 N.ar    1  UNL1       -0.1045
     31 N         139.5308  142.8920  171.1843 N.ar    1  UNL1       -0.0222
     32 N         139.8076  141.5892  170.4943 N.ar    1  UNL1       -0.0385
     33 C         139.3046  138.9224  165.0291 C.3     1  UNL1        0.4183
     34 F         138.3303  138.4465  163.9927 F       1  UNL1       -0.1659
     35 F         139.1341  137.6354  165.7803 F       1  UNL1       -0.1659
     36 F         139.4751  140.2094  164.2778 F       1  UNL1       -0.1659
@<TRIPOS>BOND
     1    11    12    2
     2    12    13    1
     3    13    14    1
     4    14    15    1
     5    15    16   ar
     6    16    17   ar
     7    17    10    1
     8    10     9    1
     9     9     1    1
    10     1     2    1
    11     2     3    1
    12     3     4    1
    13     4     5   am
    14     5     6    2
    15     5    21    1
    16    21    22    1
    17    22    23   ar
    18    23    24   ar
    19    24    25   ar
    20    25    28    1
    21    28    29   ar
    22    29    30   ar
    23    30    31   ar
    24    31    32   ar
    25    25    26   ar
    26    26    27   ar
    27    27    33    1
    28    33    34    1
    29    33    35    1
    30    33    36    1
    31     4     7    1
    32     7     8    1
    33    17    18   ar
    34    18    19   ar
    35    19    20   ar
    36    20    12    1
    37    20    15   ar
    38     8     1    1
    39    27    22   ar
    40    32    28   ar
@<TRIPOS>MOLECULE
*****
 36 40 0 0 0
SMALL
GASTEIGER

@<TRIPOS>ATOM
      1 N         143.1428  139.8990  159.8272 N.3     1  UNL1       -0.2695
      2 C         143.7312  139.6551  161.1853 C.3     1  UNL1        0.0939
      3 C         142.9010  139.0150  162.2583 C.3     1  UNL1        0.1107
      4 N         141.4827  138.6189  161.9732 N.am    1  UNL1       -0.2764
      5 C         140.6526  137.9788  163.0461 C.2     1  UNL1        0.2301
      6 O         139.2342  137.5827  162.7611 O.2     1  UNL1       -0.2745
      7 C         140.8944  138.8629  160.6151 C.3     1  UNL1        0.1107
      8 C         141.7244  139.5029  159.5421 C.3     1  UNL1        0.0939
      9 C         143.9729  140.5391  158.7542 C.3     1  UNL1        0.0769
     10 C         144.2313  142.0163  158.7868 C.3     1  UNL1        0.0437
     11 O         139.2096  146.4390  161.2066 O.2     1  UNL1       -0.2449
     12 C         140.4192  145.6493  161.6108 C.2     1  UNL1        0.3413
     13 O         141.0141  145.5897  162.9865 O.3     1  UNL1       -0.4404
     14 C         142.2088  144.6842  162.9360 C.3     1  UNL1        0.2356
     15 C         142.3524  144.1841  161.5291 C.ar    1  UNL1        0.0272
     16 C         143.3474  143.2627  160.8881 C.ar    1  UNL1       -0.0047
     17 C         143.2363  142.9378  159.4280 C.ar    1  UNL1       -0.0210
     18 C         142.1302  143.5343  158.6089 C.ar    1  UNL1       -0.0040
     19 C         141.1353  144.4557  159.2499 C.ar    1  UNL1        0.0059
     20 C         141.2464  144.7806  160.7101 C.ar    1  UNL1        0.0751
     21 C         141.2410  137.7349  164.4042 C.3     1  UNL1        0.1115
     22 C         140.9692  138.6964  165.5230 C.ar    1  UNL1       -0.0091
     23 C         139.5570  138.9803  165.9415 C.ar    1  UNL1       -0.0023
     24 C         139.2853  139.9418  167.0603 C.ar    1  UNL1        0.0189
     25 C         140.4258  140.6193  167.7606 C.ar    1  UNL1        0.0862
     26 C         141.8379  140.3353  167.3421 C.ar    1  UNL1        0.0228
     27 C         142.1096  139.3739  166.2234 C.ar    1  UNL1        0.0694
     28 N         140.1540  141.5808  168.8795 N.ar    1  UNL1       -0.1886
     29 C         140.5349  143.0314  168.9075 C.ar    1  UNL1        0.2258
     30 N         140.0700  143.6076  170.2120 N.ar    1  UNL1       -0.1045
     31 N         139.4017  142.5132  170.9902 N.ar    1  UNL1       -0.0222
     32 N         139.4536  141.2605  170.1666 N.ar    1  UNL1       -0.0385
     33 C         143.5218  139.0898  165.8048 C.3     1  UNL1        0.4183
     34 F         144.9339  138.8058  165.3863 F       1  UNL1       -0.1659
     35 F         143.5399  140.3585  165.0048 F       1  UNL1       -0.1659
     36 F         143.5037  137.8212  166.6049 F       1  UNL1       -0.1659
@<TRIPOS>BOND
     1    11    12    2
     2    12    13    1
     3    13    14    1
     4    14    15    1
     5    15    16   ar
     6    16    17   ar
     7    17    10    1
     8    10     9    1
     9     9     1    1
    10     1     2    1
    11     2     3    1
    12     3     4    1
    13     4     5   am
    14     5     6    2
    15     5    21    1
    16    21    22    1
    17    22    23   ar
    18    23    24   ar
    19    24    25   ar
    20    25    28    1
    21    28    29   ar
    22    29    30   ar
    23    30    31   ar
    24    31    32   ar
    25    25    26   ar
    26    26    27   ar
    27    27    33    1
    28    33    34    1
    29    33    35    1
    30    33    36    1
    31     4     7    1
    32     7     8    1
    33    17    18   ar
    34    18    19   ar
    35    19    20   ar
    36    20    12    1
    37    20    15   ar
    38     8     1    1
    39    27    22   ar
    40    32    28   ar
@<TRIPOS>MOLECULE
*****
 36 40 0 0 0
SMALL
GASTEIGER

@<TRIPOS>ATOM
      1 N         141.7797  139.1708  160.9550 N.3     1  UNL1       -0.2695
      2 C         141.4805  138.7722  162.3698 C.3     1  UNL1        0.0939
      3 C         140.2189  139.2428  163.0308 C.3     1  UNL1        0.1107
      4 N         139.2565  140.1121  162.2771 N.am    1  UNL1       -0.2764
      5 C         137.9950  140.5827  162.9381 C.2     1  UNL1        0.2301
      6 O         137.0325  141.4519  162.1844 O.2     1  UNL1       -0.2745
      7 C         139.5557  140.5107  160.8623 C.3     1  UNL1        0.1107
      8 C         140.8172  140.0401  160.2013 C.3     1  UNL1        0.0939
      9 C         143.0412  138.7002  160.2940 C.3     1  UNL1        0.0769
     10 C         144.3656  139.2605  160.7207 C.3     1  UNL1        0.0437
     11 O         144.8588  143.7791  166.1953 O.2     1  UNL1       -0.2449
     12 C         144.5087  143.6796  164.7401 C.2     1  UNL1        0.3413
     13 O         144.0608  144.8101  163.8618 O.3     1  UNL1       -0.4404
     14 C         143.8204  144.2613  162.4867 C.3     1  UNL1        0.2356
     15 C         144.1197  142.7917  162.5151 C.ar    1  UNL1        0.0272
     16 C         144.0599  141.7345  161.4527 C.ar    1  UNL1       -0.0047
     17 C         144.4254  140.3178  161.7831 C.ar    1  UNL1       -0.0210
     18 C         144.8509  139.9583  163.1759 C.ar    1  UNL1       -0.0040
     19 C         144.9107  141.0155  164.2382 C.ar    1  UNL1        0.0059
     20 C         144.5451  142.4322  163.9078 C.ar    1  UNL1        0.0751
     21 C         137.6958  140.1840  164.3529 C.3     1  UNL1        0.1115
     22 C         138.5965  140.6333  165.4651 C.ar    1  UNL1       -0.0091
     23 C         139.2177  141.9979  165.4223 C.ar    1  UNL1       -0.0023
     24 C         140.1183  142.4472  166.5345 C.ar    1  UNL1        0.0189
     25 C         140.3978  141.5317  167.6895 C.ar    1  UNL1        0.0862
     26 C         139.7767  140.1671  167.7322 C.ar    1  UNL1        0.0228
     27 C         138.8760  139.7179  166.6200 C.ar    1  UNL1        0.0694
     28 N         141.2985  141.9810  168.8017 N.ar    1  UNL1       -0.1886
     29 C         142.7477  142.3450  168.6701 C.ar    1  UNL1        0.2258
     30 N         143.2531  142.7341  170.0278 N.ar    1  UNL1       -0.1045
     31 N         142.1160  142.6107  170.9984 N.ar    1  UNL1       -0.0222
     32 N         140.9081  142.1452  170.2406 N.ar    1  UNL1       -0.0385
     33 C         138.2548  138.3532  166.6628 C.3     1  UNL1        0.4183
     34 F         137.6336  136.9885  166.7055 F       1  UNL1       -0.1659
     35 F         137.1979  138.8635  167.5968 F       1  UNL1       -0.1659
     36 F         139.3117  137.8429  165.7287 F       1  UNL1       -0.1659
@<TRIPOS>BOND
     1    11    12    2
     2    12    13    1
     3    13    14    1
     4    14    15    1
     5    15    16   ar
     6    16    17   ar
     7    17    10    1
     8    10     9    1
     9     9     1    1
    10     1     2    1
    11     2     3    1
    12     3     4    1
    13     4     5   am
    14     5     6    2
    15     5    21    1
    16    21    22    1
    17    22    23   ar
    18    23    24   ar
    19    24    25   ar
    20    25    28    1
    21    28    29   ar
    22    29    30   ar
    23    30    31   ar
    24    31    32   ar
    25    25    26   ar
    26    26    27   ar
    27    27    33    1
    28    33    34    1
    29    33    35    1
    30    33    36    1
    31     4     7    1
    32     7     8    1
    33    17    18   ar
    34    18    19   ar
    35    19    20   ar
    36    20    12    1
    37    20    15   ar
    38     8     1    1
    39    27    22   ar
    40    32    28   ar
@<TRIPOS>MOLECULE
*****
 36 40 0 0 0
SMALL
GASTEIGER

@<TRIPOS>ATOM
      1 N         140.0970  139.0123  159.6459 N.3     1  UNL1       -0.2695
      2 C         140.0196  138.4456  161.0326 C.3     1  UNL1        0.0939
      3 C         139.2475  139.1685  162.0962 C.3     1  UNL1        0.1107
      4 N         138.5527  140.4581  161.7732 N.am    1  UNL1       -0.2764
      5 C         137.7807  141.1809  162.8368 C.2     1  UNL1        0.2301
      6 O         137.0859  142.4705  162.5138 O.2     1  UNL1       -0.2745
      7 C         138.6301  141.0248  160.3865 C.3     1  UNL1        0.1107
      8 C         139.4022  140.3019  159.3229 C.3     1  UNL1        0.0939
      9 C         140.8691  138.2895  158.5823 C.3     1  UNL1        0.0769
     10 C         142.3687  138.3194  158.5929 C.3     1  UNL1        0.0437
     11 O         145.9029  141.2768  164.0147 O.2     1  UNL1       -0.2449
     12 C         145.2185  141.5755  162.7138 C.2     1  UNL1        0.3413
     13 O         145.0809  142.9281  162.0801 O.3     1  UNL1       -0.4404
     14 C         144.3289  142.7626  160.7928 C.3     1  UNL1        0.2356
     15 C         144.0016  141.3077  160.6309 C.ar    1  UNL1        0.0272
     16 C         143.2741  140.5562  159.5558 C.ar    1  UNL1       -0.0047
     17 C         143.0963  139.0710  159.6680 C.ar    1  UNL1       -0.0210
     18 C         143.6461  138.3373  160.8552 C.ar    1  UNL1       -0.0040
     19 C         144.3737  139.0889  161.9303 C.ar    1  UNL1        0.0059
     20 C         144.5514  140.5740  161.8181 C.ar    1  UNL1        0.0751
     21 C         137.7033  140.6142  164.2235 C.3     1  UNL1        0.1115
     22 C         138.6856  141.0529  165.2688 C.ar    1  UNL1       -0.0091
     23 C         139.2188  142.4548  165.2557 C.ar    1  UNL1       -0.0023
     24 C         140.2011  142.8934  166.3010 C.ar    1  UNL1        0.0189
     25 C         140.6502  141.9301  167.3595 C.ar    1  UNL1        0.0862
     26 C         140.1170  140.5281  167.3726 C.ar    1  UNL1        0.0228
     27 C         139.1347  140.0895  166.3273 C.ar    1  UNL1        0.0694
     28 N         141.6325  142.3687  168.4048 N.ar    1  UNL1       -0.1886
     29 C         141.3051  143.1135  169.6651 C.ar    1  UNL1        0.2258
     30 N         142.5849  143.3447  170.4126 N.ar    1  UNL1       -0.1045
     31 N         143.7032  142.7429  169.6143 N.ar    1  UNL1       -0.0222
     32 N         143.1145  142.1397  168.3734 N.ar    1  UNL1       -0.0385
     33 C         138.6015  138.6875  166.3404 C.3     1  UNL1        0.4183
     34 F         138.0682  137.2856  166.3535 F       1  UNL1       -0.1659
     35 F         139.6835  138.2671  165.3905 F       1  UNL1       -0.1659
     36 F         137.5194  139.1080  167.2902 F       1  UNL1       -0.1659
@<TRIPOS>BOND
     1    11    12    2
     2    12    13    1
     3    13    14    1
     4    14    15    1
     5    15    16   ar
     6    16    17   ar
     7    17    10    1
     8    10     9    1
     9     9     1    1
    10     1     2    1
    11     2     3    1
    12     3     4    1
    13     4     5   am
    14     5     6    2
    15     5    21    1
    16    21    22    1
    17    22    23   ar
    18    23    24   ar
    19    24    25   ar
    20    25    28    1
    21    28    29   ar
    22    29    30   ar
    23    30    31   ar
    24    31    32   ar
    25    25    26   ar
    26    26    27   ar
    27    27    33    1
    28    33    34    1
    29    33    35    1
    30    33    36    1
    31     4     7    1
    32     7     8    1
    33    17    18   ar
    34    18    19   ar
    35    19    20   ar
    36    20    12    1
    37    20    15   ar
    38     8     1    1
    39    27    22   ar
    40    32    28   ar
@<TRIPOS>MOLECULE
*****
 36 40 0 0 0
SMALL
GASTEIGER

@<TRIPOS>ATOM
      1 N         141.9512  137.9979  159.1475 N.3     1  UNL1       -0.2695
      2 C         142.6651  137.6230  160.4123 C.3     1  UNL1        0.0939
      3 C         141.9384  137.6640  161.7240 C.3     1  UNL1        0.1107
      4 N         140.4980  138.0798  161.7708 N.am    1  UNL1       -0.2764
      5 C         139.7715  138.1208  163.0824 C.2     1  UNL1        0.2301
      6 O         138.3310  138.5367  163.1292 O.2     1  UNL1       -0.2745
      7 C         139.7842  138.4547  160.5059 C.3     1  UNL1        0.1107
      8 C         140.5107  138.4137  159.1943 C.3     1  UNL1        0.0939
      9 C         142.6778  137.9569  157.8359 C.3     1  UNL1        0.0769
     10 C         142.1192  137.1612  156.6936 C.3     1  UNL1        0.0437
     11 O         144.3508  130.7082  154.6910 O.2     1  UNL1       -0.2449
     12 C         144.3789  131.6996  155.8162 C.2     1  UNL1        0.3413
     13 O         145.0672  131.5158  157.1363 O.3     1  UNL1       -0.4404
     14 C         144.8373  132.7515  157.9549 C.3     1  UNL1        0.2356
     15 C         144.0069  133.6990  157.1408 C.ar    1  UNL1        0.0272
     16 C         143.4721  135.0698  157.4323 C.ar    1  UNL1       -0.0047
     17 C         142.6540  135.7904  156.4021 C.ar    1  UNL1       -0.0210
     18 C         142.3707  135.1402  155.0803 C.ar    1  UNL1       -0.0040
     19 C         142.9055  133.7695  154.7888 C.ar    1  UNL1        0.0059
     20 C         143.7235  133.0489  155.8190 C.ar    1  UNL1        0.0751
     21 C         140.4853  137.7460  164.3472 C.3     1  UNL1        0.1115
     22 C         140.4753  138.6816  165.5197 C.ar    1  UNL1       -0.0091
     23 C         139.1906  138.9694  166.2386 C.ar    1  UNL1       -0.0023
     24 C         139.1806  139.9050  167.4109 C.ar    1  UNL1        0.0189
     25 C         140.4552  140.5529  167.8643 C.ar    1  UNL1        0.0862
     26 C         141.7399  140.2652  167.1454 C.ar    1  UNL1        0.0228
     27 C         141.7499  139.3295  165.9731 C.ar    1  UNL1        0.0694
     28 N         140.4452  141.4886  169.0367 N.ar    1  UNL1       -0.1886
     29 C         141.2478  142.7493  169.1655 C.ar    1  UNL1        0.2258
     30 N         140.9295  143.3678  170.4945 N.ar    1  UNL1       -0.1045
     31 N         139.9301  142.4893  171.1870 N.ar    1  UNL1       -0.0222
     32 N         139.6308  141.3280  170.2861 N.ar    1  UNL1       -0.0385
     33 C         143.0346  139.0418  165.2541 C.3     1  UNL1        0.4183
     34 F         144.3191  138.7540  164.5351 F       1  UNL1       -0.1659
     35 F         143.3139  137.9150  166.2040 F       1  UNL1       -0.1659
     36 F         142.7552  140.1685  164.3041 F       1  UNL1       -0.1659
@<TRIPOS>BOND
     1    11    12    2
     2    12    13    1
     3    13    14    1
     4    14    15    1
     5    15    16   ar
     6    16    17   ar
     7    17    10    1
     8    10     9    1
     9     9     1    1
    10     1     2    1
    11     2     3    1
    12     3     4    1
    13     4     5   am
    14     5     6    2
    15     5    21    1
    16    21    22    1
    17    22    23   ar
    18    23    24   ar
    19    24    25   ar
    20    25    28    1
    21    28    29   ar
    22    29    30   ar
    23    30    31   ar
    24    31    32   ar
    25    25    26   ar
    26    26    27   ar
    27    27    33    1
    28    33    34    1
    29    33    35    1
    30    33    36    1
    31     4     7    1
    32     7     8    1
    33    17    18   ar
    34    18    19   ar
    35    19    20   ar
    36    20    12    1
    37    20    15   ar
    38     8     1    1
    39    27    22   ar
    40    32    28   ar
@<TRIPOS>MOLECULE
*****
 36 40 0 0 0
SMALL
GASTEIGER

@<TRIPOS>ATOM
      1 N         140.5001  138.5852  158.7321 N.3     1  UNL1       -0.2695
      2 C         139.3186  139.0780  159.5140 C.3     1  UNL1        0.0939
      3 C         139.5111  139.6320  160.8946 C.3     1  UNL1        0.1107
      4 N         140.8851  139.6932  161.4933 N.am    1  UNL1       -0.2764
      5 C         141.0775  140.2472  162.8739 C.2     1  UNL1        0.2301
      6 O         142.4515  140.3084  163.4727 O.2     1  UNL1       -0.2745
      7 C         142.0665  139.2004  160.7115 C.3     1  UNL1        0.1107
      8 C         141.8741  138.6465  159.3309 C.3     1  UNL1        0.0939
      9 C         140.3076  138.0313  157.3515 C.3     1  UNL1        0.0769
     10 C         141.4975  137.6234  156.5344 C.3     1  UNL1        0.0437
     11 O         142.6995  130.6956  155.4425 O.2     1  UNL1       -0.2449
     12 C         143.1480  131.8884  156.2337 C.2     1  UNL1        0.3413
     13 O         144.2486  131.9074  157.2527 O.3     1  UNL1       -0.4404
     14 C         144.3554  133.3024  157.7936 C.3     1  UNL1        0.2356
     15 C         143.3208  134.1455  157.1089 C.ar    1  UNL1        0.0272
     16 C         142.9618  135.5961  157.2388 C.ar    1  UNL1       -0.0047
     17 C         141.8566  136.1728  156.4046 C.ar    1  UNL1       -0.0210
     18 C         141.1104  135.2988  155.4405 C.ar    1  UNL1       -0.0040
     19 C         141.4694  133.8482  155.3107 C.ar    1  UNL1        0.0059
     20 C         142.5746  133.2716  156.1449 C.ar    1  UNL1        0.0751
     21 C         139.8961  140.7399  163.6558 C.3     1  UNL1        0.1115
     22 C         140.0002  140.9145  165.1420 C.ar    1  UNL1       -0.0091
     23 C         140.4845  142.2146  165.7123 C.ar    1  UNL1       -0.0023
     24 C         140.5886  142.3891  167.1984 C.ar    1  UNL1        0.0189
     25 C         140.2085  141.2636  168.1142 C.ar    1  UNL1        0.0862
     26 C         139.7242  139.9636  167.5439 C.ar    1  UNL1        0.0228
     27 C         139.6201  139.7890  166.0578 C.ar    1  UNL1        0.0694
     28 N         140.3126  141.4382  169.6004 N.ar    1  UNL1       -0.1886
     29 C         140.7005  140.3776  170.5877 C.ar    1  UNL1        0.2258
     30 N         140.6748  140.9879  171.9577 N.ar    1  UNL1       -0.1045
     31 N         140.2710  142.4257  171.8171 N.ar    1  UNL1       -0.0222
     32 N         140.0472  142.7040  170.3602 N.ar    1  UNL1       -0.0385
     33 C         139.1358  138.4889  165.4874 C.3     1  UNL1        0.4183
     34 F         138.6514  137.1889  164.9170 F       1  UNL1       -0.1659
     35 F         140.5538  138.0171  165.3587 F       1  UNL1       -0.1659
     36 F         137.7178  138.9608  165.6161 F       1  UNL1       -0.1659
@<TRIPOS>BOND
     1    11    12    2
     2    12    13    1
     3    13    14    1
     4    14    15    1
     5    15    16   ar
     6    16    17   ar
     7    17    10    1
     8    10     9    1
     9     9     1    1
    10     1     2    1
    11     2     3    1
    12     3     4    1
    13     4     5   am
    14     5     6    2
    15     5    21    1
    16    21    22    1
    17    22    23   ar
    18    23    24   ar
    19    24    25   ar
    20    25    28    1
    21    28    29   ar
    22    29    30   ar
    23    30    31   ar
    24    31    32   ar
    25    25    26   ar
    26    26    27   ar
    27    27    33    1
    28    33    34    1
    29    33    35    1
    30    33    36    1
    31     4     7    1
    32     7     8    1
    33    17    18   ar
    34    18    19   ar
    35    19    20   ar
    36    20    12    1
    37    20    15   ar
    38     8     1    1
    39    27    22   ar
    40    32    28   ar
@<TRIPOS>MOLECULE
*****
 36 40 0 0 0
SMALL
GASTEIGER

@<TRIPOS>ATOM
      1 N         142.1275  142.3012  159.7544 N.3     1  UNL1       -0.2695
      2 C         141.6286  141.3372  160.7897 C.3     1  UNL1        0.0939
      3 C         142.5233  140.9200  161.9191 C.3     1  UNL1        0.1107
      4 N         143.9168  141.4669  162.0133 N.am    1  UNL1       -0.2764
      5 C         144.8115  141.0497  163.1427 C.2     1  UNL1        0.2301
      6 O         146.2051  141.5966  163.2368 O.2     1  UNL1       -0.2745
      7 C         144.4158  142.4309  160.9780 C.3     1  UNL1        0.1107
      8 C         143.5212  142.8480  159.8486 C.3     1  UNL1        0.0939
      9 C         141.2329  142.7183  158.6250 C.3     1  UNL1        0.0769
     10 C         139.9834  143.4988  158.9070 C.3     1  UNL1        0.0437
     11 O         138.4064  145.3588  165.5917 O.2     1  UNL1       -0.2449
     12 C         138.1783  144.3085  164.5453 C.2     1  UNL1        0.3413
     13 O         137.3412  143.0739  164.7031 O.3     1  UNL1       -0.4404
     14 C         137.3928  142.3109  163.4127 C.3     1  UNL1        0.2356
     15 C         138.2619  143.0739  162.4574 C.ar    1  UNL1        0.0272
     16 C         138.6739  142.8040  161.0406 C.ar    1  UNL1       -0.0047
     17 C         139.5713  143.7687  160.3238 C.ar    1  UNL1       -0.0210
     18 C         140.0568  145.0033  161.0238 C.ar    1  UNL1       -0.0040
     19 C         139.6448  145.2732  162.4406 C.ar    1  UNL1        0.0059
     20 C         138.7474  144.3085  163.1574 C.ar    1  UNL1        0.0751
     21 C         144.3125  140.0857  164.1779 C.3     1  UNL1        0.1115
     22 C         143.5710  140.5927  165.3793 C.ar    1  UNL1       -0.0091
     23 C         143.8709  141.9573  165.9250 C.ar    1  UNL1       -0.0023
     24 C         143.1295  142.4642  167.1263 C.ar    1  UNL1        0.0189
     25 C         142.0881  141.6065  167.7819 C.ar    1  UNL1        0.0862
     26 C         141.7882  140.2419  167.2363 C.ar    1  UNL1        0.0228
     27 C         142.5297  139.7350  166.0350 C.ar    1  UNL1        0.0694
     28 N         141.3466  142.1135  168.9833 N.ar    1  UNL1       -0.1886
     29 C         140.3957  143.2733  169.0079 C.ar    1  UNL1        0.2258
     30 N         139.8872  143.4263  170.4107 N.ar    1  UNL1       -0.1045
     31 N         140.5239  142.3610  171.2532 N.ar    1  UNL1       -0.0222
     32 N         141.4258  141.5496  170.3710 N.ar    1  UNL1       -0.0385
     33 C         142.2298  138.3703  165.4892 C.3     1  UNL1        0.4183
     34 F         141.9299  137.0057  164.9435 F       1  UNL1       -0.1659
     35 F         143.3466  137.7966  166.3099 F       1  UNL1       -0.1659
     36 F         141.1130  138.9439  164.6685 F       1  UNL1       -0.1659
@<TRIPOS>BOND
     1    11    12    2
     2    12    13    1
     3    13    14    1
     4    14    15    1
     5    15    16   ar
     6    16    17   ar
     7    17    10    1
     8    10     9    1
     9     9     1    1
    10     1     2    1
    11     2     3    1
    12     3     4    1
    13     4     5   am
    14     5     6    2
    15     5    21    1
    16    21    22    1
    17    22    23   ar
    18    23    24   ar
    19    24    25   ar
    20    25    28    1
    21    28    29   ar
    22    29    30   ar
    23    30    31   ar
    24    31    32   ar
    25    25    26   ar
    26    26    27   ar
    27    27    33    1
    28    33    34    1
    29    33    35    1
    30    33    36    1
    31     4     7    1
    32     7     8    1
    33    17    18   ar
    34    18    19   ar
    35    19    20   ar
    36    20    12    1
    37    20    15   ar
    38     8     1    1
    39    27    22   ar
    40    32    28   ar
@<TRIPOS>MOLECULE
*****
 36 40 0 0 0
SMALL
GASTEIGER

@<TRIPOS>ATOM
      1 N         141.6498  138.8652  159.2818 N.3     1  UNL1       -0.2695
      2 C         140.7404  138.2819  160.3224 C.3     1  UNL1        0.0939
      3 C         141.1905  138.1999  161.7509 C.3     1  UNL1        0.1107
      4 N         142.5500  138.7010  162.1388 N.am    1  UNL1       -0.2764
      5 C         143.0002  138.6190  163.5673 C.2     1  UNL1        0.2301
      6 O         144.3597  139.1202  163.9553 O.2     1  UNL1       -0.2745
      7 C         143.4594  139.2843  161.0983 C.3     1  UNL1        0.1107
      8 C         143.0093  139.3664  159.6698 C.3     1  UNL1        0.0939
      9 C         141.1997  138.9473  157.8533 C.3     1  UNL1        0.0769
     10 C         142.0623  138.3867  156.7617 C.3     1  UNL1        0.0437
     11 O         141.7678  131.4505  155.2012 O.2     1  UNL1       -0.2449
     12 C         142.4791  132.4696  156.0412 C.2     1  UNL1        0.3413
     13 O         143.5926  132.1935  157.0076 O.3     1  UNL1       -0.4404
     14 C         144.0035  133.4970  157.6258 C.3     1  UNL1        0.2356
     15 C         143.1440  134.5786  157.0415 C.ar    1  UNL1        0.0272
     16 C         143.0975  136.0596  157.2747 C.ar    1  UNL1       -0.0047
     17 C         142.1088  136.9056  156.5285 C.ar    1  UNL1       -0.0210
     18 C         141.1667  136.2706  155.5492 C.ar    1  UNL1       -0.0040
     19 C         141.2132  134.7896  155.3160 C.ar    1  UNL1        0.0059
     20 C         142.2018  133.9436  156.0621 C.ar    1  UNL1        0.0751
     21 C         142.0908  138.0357  164.6079 C.3     1  UNL1        0.1115
     22 C         141.7782  138.8136  165.8518 C.ar    1  UNL1       -0.0091
     23 C         142.8421  139.0336  166.8860 C.ar    1  UNL1       -0.0023
     24 C         142.5295  139.8114  168.1299 C.ar    1  UNL1        0.0189
     25 C         141.1529  140.3692  168.3395 C.ar    1  UNL1        0.0862
     26 C         140.0890  140.1491  167.3054 C.ar    1  UNL1        0.0228
     27 C         140.4016  139.3713  166.0615 C.ar    1  UNL1        0.0694
     28 N         140.8403  141.1471  169.5835 N.ar    1  UNL1       -0.1886
     29 C         140.0519  142.4213  169.6517 C.ar    1  UNL1        0.2258
     30 N         139.9855  142.8491  171.0879 N.ar    1  UNL1       -0.1045
     31 N         140.7329  141.8391  171.9073 N.ar    1  UNL1       -0.0222
     32 N         141.2612  140.7872  170.9775 N.ar    1  UNL1       -0.0385
     33 C         139.3376  139.1512  165.0272 C.3     1  UNL1        0.4183
     34 F         138.2737  138.9312  163.9930 F       1  UNL1       -0.1659
     35 F         138.8831  137.9218  165.7564 F       1  UNL1       -0.1659
     36 F         139.7922  140.3807  164.2981 F       1  UNL1       -0.1659
@<TRIPOS>BOND
     1    11    12    2
     2    12    13    1
     3    13    14    1
     4    14    15    1
     5    15    16   ar
     6    16    17   ar
     7    17    10    1
     8    10     9    1
     9     9     1    1
    10     1     2    1
    11     2     3    1
    12     3     4    1
    13     4     5   am
    14     5     6    2
    15     5    21    1
    16    21    22    1
    17    22    23   ar
    18    23    24   ar
    19    24    25   ar
    20    25    28    1
    21    28    29   ar
    22    29    30   ar
    23    30    31   ar
    24    31    32   ar
    25    25    26   ar
    26    26    27   ar
    27    27    33    1
    28    33    34    1
    29    33    35    1
    30    33    36    1
    31     4     7    1
    32     7     8    1
    33    17    18   ar
    34    18    19   ar
    35    19    20   ar
    36    20    12    1
    37    20    15   ar
    38     8     1    1
    39    27    22   ar
    40    32    28   ar
@<TRIPOS>MOLECULE
*****
 36 40 0 0 0
SMALL
GASTEIGER

@<TRIPOS>ATOM
      1 N         142.1773  139.2001  159.7161 N.3     1  UNL1       -0.2695
      2 C         141.2253  138.6059  160.7114 C.3     1  UNL1        0.0939
      3 C         141.6388  138.4514  162.1450 C.3     1  UNL1        0.1107
      4 N         143.0042  138.8912  162.5833 N.am    1  UNL1       -0.2764
      5 C         143.4176  138.7368  164.0169 C.2     1  UNL1        0.2301
      6 O         144.7831  139.1766  164.4553 O.2     1  UNL1       -0.2745
      7 C         143.9562  139.4855  161.5880 C.3     1  UNL1        0.1107
      8 C         143.5428  139.6399  160.1545 C.3     1  UNL1        0.0939
      9 C         141.7639  139.3546  158.2825 C.3     1  UNL1        0.0769
     10 C         141.0580  140.6003  157.8356 C.3     1  UNL1        0.0437
     11 O         137.9378  144.8425  162.6209 O.2     1  UNL1       -0.2449
     12 C         139.2207  144.5913  161.8854 C.2     1  UNL1        0.3413
     13 O         140.4851  145.3867  162.0212 O.3     1  UNL1       -0.4404
     14 C         141.5103  144.7875  161.1046 C.3     1  UNL1        0.2356
     15 C         140.8794  143.6218  160.4024 C.ar    1  UNL1        0.0272
     16 C         141.4106  142.6551  159.3860 C.ar    1  UNL1       -0.0047
     17 C         140.5268  141.5671  158.8521 C.ar    1  UNL1       -0.0210
     18 C         139.1117  141.4458  159.3346 C.ar    1  UNL1       -0.0040
     19 C         138.5805  142.4125  160.3511 C.ar    1  UNL1        0.0059
     20 C         139.4643  143.5005  160.8850 C.ar    1  UNL1        0.0751
     21 C         142.4656  138.1426  165.0122 C.3     1  UNL1        0.1115
     22 C         142.0347  138.9408  166.2069 C.ar    1  UNL1       -0.0091
     23 C         142.9737  139.1292  167.3613 C.ar    1  UNL1       -0.0023
     24 C         142.5427  139.9274  168.5560 C.ar    1  UNL1        0.0189
     25 C         141.1728  140.5371  168.5961 C.ar    1  UNL1        0.0862
     26 C         140.2338  140.3486  167.4417 C.ar    1  UNL1        0.0228
     27 C         140.6648  139.5505  166.2471 C.ar    1  UNL1        0.0694
     28 N         140.7419  141.3353  169.7908 N.ar    1  UNL1       -0.1886
     29 C         141.0687  141.0266  171.2219 C.ar    1  UNL1        0.2258
     30 N         140.4373  142.0828  172.0798 N.ar    1  UNL1       -0.1045
     31 N         139.7203  143.0442  171.1788 N.ar    1  UNL1       -0.0222
     32 N         139.9085  142.5822  169.7642 N.ar    1  UNL1       -0.0385
     33 C         139.7258  139.3619  165.0925 C.3     1  UNL1        0.4183
     34 F         138.7869  139.1734  163.9381 F       1  UNL1       -0.1659
     35 F         140.2787  140.5949  164.4414 F       1  UNL1       -0.1659
     36 F         139.1729  138.1290  165.7436 F       1  UNL1       -0.1659
@<TRIPOS>BOND
     1    11    12    2
     2    12    13    1
     3    13    14    1
     4    14    15    1
     5    15    16   ar
     6    16    17   ar
     7    17    10    1
     8    10     9    1
     9     9     1    1
    10     1     2    1
    11     2     3    1
    12     3     4    1
    13     4     5   am
    14     5     6    2
    15     5    21    1
    16    21    22    1
    17    22    23   ar
    18    23    24   ar
    19    24    25   ar
    20    25    28    1
    21    28    29   ar
    22    29    30   ar
    23    30    31   ar
    24    31    32   ar
    25    25    26   ar
    26    26    27   ar
    27    27    33    1
    28    33    34    1
    29    33    35    1
    30    33    36    1
    31     4     7    1
    32     7     8    1
    33    17    18   ar
    34    18    19   ar
    35    19    20   ar
    36    20    12    1
    37    20    15   ar
    38     8     1    1
    39    27    22   ar
    40    32    28   ar
