@<TRIPOS>MOLECULE
*****
 41 45 0 0 0
SMALL
GASTEIGER

@<TRIPOS>ATOM
      1 C         139.9104  145.2040  156.8106 C.3     1  UNL1        0.0758
      2 C         138.8217  145.9552  156.1032 C.3     1  UNL1        0.0370
      3 C         138.1684  145.3631  154.8898 C.3     1  UNL1        0.0741
      4 N         138.6037  144.0198  154.3836 N.3     1  UNL1       -0.2688
      5 C         139.6924  143.2687  155.0910 C.3     1  UNL1        0.0741
      6 C         140.3458  143.8607  156.3045 C.3     1  UNL1        0.0370
      7 O         139.4447  143.9833  159.5112 O.2     1  UNL1       -0.2528
      8 C         140.3310  145.1857  159.3743 C.2     1  UNL1        0.3010
      9 N         140.5639  145.7960  158.0241 N.am    1  UNL1       -0.2905
     10 N         140.9844  145.7778  160.5879 N.am    1  UNL1       -0.2849
     11 H         141.1456  146.5852  157.9343 H       1  UNL1        0.1509
     12 H         141.5661  146.5669  160.4981 H       1  UNL1        0.1513
     13 C         140.7515  145.1674  161.9381 C.3     1  UNL1        0.1181
     14 C         141.8657  144.4472  162.6379 C.ar    1  UNL1       -0.0026
     15 C         142.6900  145.1612  163.6679 C.ar    1  UNL1       -0.0026
     16 C         143.8043  144.4409  164.3677 C.ar    1  UNL1       -0.0003
     17 C         144.0943  143.0068  164.0374 C.ar    1  UNL1       -0.0000
     18 C         143.2701  142.2928  163.0075 C.ar    1  UNL1       -0.0003
     19 C         142.1558  143.0130  162.3076 C.ar    1  UNL1       -0.0026
     20 C         139.4043  145.2773  162.5886 C.3     1  UNL1        0.1317
     21 N         138.7296  144.0510  163.1279 N.ar    1  UNL1       -0.3058
     22 C         137.8554  143.1119  162.3509 C.ar    1  UNL1        0.0981
     23 C         137.3961  142.0290  163.2817 C.ar    1  UNL1        0.1193
     24 N         137.9866  142.2988  164.6340 N.ar    1  UNL1       -0.2223
     25 C         138.8108  143.5484  164.5389 C.ar    1  UNL1        0.1787
     26 C         137.9503  143.4278  153.1701 C.3     1  UNL1        0.1007
     27 C         136.6041  142.7764  153.2857 C.ar    1  UNL1        0.0129
     28 C         135.6120  142.5995  152.1747 C.ar    1  UNL1        0.0176
     29 C         134.4083  141.9014  152.7349 C.ar    1  UNL1        0.0799
     30 N         134.6566  141.6468  154.1922 N.ar    1  UNL1       -0.3038
     31 C         136.0136  142.1876  154.5325 C.ar    1  UNL1        0.0772
     32 C         133.7134  140.9702  155.1422 C.ar    1  UNL1        0.0640
     33 C         134.2030  139.8562  156.0192 C.ar    1  UNL1        0.0175
     34 C         133.2598  139.1796  156.9692 C.ar    1  UNL1        0.0053
     35 C         131.8270  139.6170  157.0422 C.ar    1  UNL1        0.0715
     36 C         131.3372  140.7310  156.1652 C.ar    1  UNL1        0.0053
     37 C         132.2804  141.4076  155.2152 C.ar    1  UNL1        0.0175
     38 C         130.8838  138.9404  157.9922 C.3     1  UNL1        0.4186
     39 F         129.9405  138.2638  158.9422 F       1  UNL1       -0.1659
     40 F         132.0326  138.1905  158.5988 F       1  UNL1       -0.1659
     41 F         129.7348  139.6903  157.3857 F       1  UNL1       -0.1659
@<TRIPOS>BOND
     1     7     8    2
     2     8     9   am
     3     9     1    1
     4     1     2    1
     5     2     3    1
     6     3     4    1
     7     4    26    1
     8    26    27    1
     9    27    28   ar
    10    28    29   ar
    11    29    30   ar
    12    30    32    1
    13    32    33   ar
    14    33    34   ar
    15    34    35   ar
    16    35    38    1
    17    38    39    1
    18    38    40    1
    19    38    41    1
    20    35    36   ar
    21    36    37   ar
    22    30    31   ar
    23     4     5    1
    24     5     6    1
    25     8    10   am
    26    10    13    1
    27    13    20    1
    28    20    21    1
    29    21    22   ar
    30    22    23   ar
    31    23    24   ar
    32    24    25   ar
    33    13    14    1
    34    14    15   ar
    35    15    16   ar
    36    16    17   ar
    37    17    18   ar
    38    18    19   ar
    39     6     1    1
    40    25    21   ar
    41    19    14   ar
    42    31    27   ar
    43    37    32   ar
    44     9    11    1
    45    10    12    1
@<TRIPOS>MOLECULE
*****
 41 45 0 0 0
SMALL
GASTEIGER

@<TRIPOS>ATOM
      1 C         141.0310  138.1767  161.2997 C.3     1  UNL1        0.0758
      2 C         142.4588  137.8061  161.0276 C.3     1  UNL1        0.0370
      3 C         142.9801  137.8114  159.6212 C.3     1  UNL1        0.0741
      4 N         142.0737  138.1874  158.4868 N.3     1  UNL1       -0.2688
      5 C         140.6459  138.5580  158.7588 C.3     1  UNL1        0.0741
      6 C         140.1246  138.5527  160.1652 C.3     1  UNL1        0.0370
      7 O         141.3333  140.6153  163.0207 O.2     1  UNL1       -0.2528
      8 C         140.6608  139.3907  163.5667 C.2     1  UNL1        0.3010
      9 N         140.5096  138.1714  162.7062 N.am    1  UNL1       -0.2905
     10 N         140.1394  139.3854  164.9732 N.am    1  UNL1       -0.2849
     11 H         140.0683  137.3677  163.0645 H       1  UNL1        0.1509
     12 H         139.6980  138.5816  165.3315 H       1  UNL1        0.1513
     13 C         140.2905  140.6046  165.8337 C.3     1  UNL1        0.1181
     14 C         139.5332  141.8559  165.5010 C.ar    1  UNL1       -0.0026
     15 C         140.0672  143.1915  165.9268 C.ar    1  UNL1       -0.0026
     16 C         139.3099  144.4427  165.5941 C.ar    1  UNL1       -0.0003
     17 C         138.0185  144.3585  164.8356 C.ar    1  UNL1       -0.0000
     18 C         137.4845  143.0231  164.4098 C.ar    1  UNL1       -0.0003
     19 C         138.2418  141.7717  164.7425 C.ar    1  UNL1       -0.0026
     20 C         141.1990  140.5727  167.0269 C.3     1  UNL1        0.1317
     21 N         140.6228  140.4315  168.4046 N.ar    1  UNL1       -0.3058
     22 C         141.3634  140.6274  169.6942 C.ar    1  UNL1        0.0981
     23 C         140.4033  140.3867  170.8212 C.ar    1  UNL1        0.1193
     24 N         139.0693  140.0419  170.2281 N.ar    1  UNL1       -0.2223
     25 C         139.2050  140.0696  168.7346 C.ar    1  UNL1        0.1787
     26 C         142.5950  138.1927  157.0802 C.3     1  UNL1        0.1007
     27 C         142.8216  136.8969  156.3595 C.ar    1  UNL1        0.0129
     28 C         142.6959  136.6767  154.8811 C.ar    1  UNL1        0.0176
     29 C         143.0103  135.2376  154.5984 C.ar    1  UNL1        0.0799
     30 N         143.3303  134.5682  155.9022 N.ar    1  UNL1       -0.3038
     31 C         143.2137  135.5938  156.9905 C.ar    1  UNL1        0.0772
     32 C         143.7017  133.1266  156.0853 C.ar    1  UNL1        0.0640
     33 C         144.2934  132.6636  157.3835 C.ar    1  UNL1        0.0175
     34 C         144.6648  131.2219  157.5667 C.ar    1  UNL1        0.0053
     35 C         144.4446  130.2432  156.4516 C.ar    1  UNL1        0.0715
     36 C         143.8529  130.7061  155.1533 C.ar    1  UNL1        0.0053
     37 C         143.4815  132.1478  154.9702 C.ar    1  UNL1        0.0175
     38 C         144.8160  128.8015  156.6348 C.3     1  UNL1        0.4186
     39 F         145.1874  127.3598  156.8179 F       1  UNL1       -0.1659
     40 F         144.1102  128.7879  157.9583 F       1  UNL1       -0.1659
     41 F         145.5218  128.8151  155.3112 F       1  UNL1       -0.1659
@<TRIPOS>BOND
     1     7     8    2
     2     8     9   am
     3     9     1    1
     4     1     2    1
     5     2     3    1
     6     3     4    1
     7     4    26    1
     8    26    27    1
     9    27    28   ar
    10    28    29   ar
    11    29    30   ar
    12    30    32    1
    13    32    33   ar
    14    33    34   ar
    15    34    35   ar
    16    35    38    1
    17    38    39    1
    18    38    40    1
    19    38    41    1
    20    35    36   ar
    21    36    37   ar
    22    30    31   ar
    23     4     5    1
    24     5     6    1
    25     8    10   am
    26    10    13    1
    27    13    20    1
    28    20    21    1
    29    21    22   ar
    30    22    23   ar
    31    23    24   ar
    32    24    25   ar
    33    13    14    1
    34    14    15   ar
    35    15    16   ar
    36    16    17   ar
    37    17    18   ar
    38    18    19   ar
    39     6     1    1
    40    25    21   ar
    41    19    14   ar
    42    31    27   ar
    43    37    32   ar
    44     9    11    1
    45    10    12    1
@<TRIPOS>MOLECULE
*****
 41 45 0 0 0
SMALL
GASTEIGER

@<TRIPOS>ATOM
      1 C         143.2977  139.6887  160.9563 C.3     1  UNL1        0.0758
      2 C         142.6549  138.3610  160.6849 C.3     1  UNL1        0.0370
      3 C         142.5421  137.8562  159.2769 C.3     1  UNL1        0.0741
      4 N         143.0722  138.6791  158.1404 N.3     1  UNL1       -0.2688
      5 C         143.7151  140.0069  158.4118 C.3     1  UNL1        0.0741
      6 C         143.8279  140.5117  159.8198 C.3     1  UNL1        0.0370
      7 O         140.8987  140.8564  162.3279 O.2     1  UNL1       -0.2528
      8 C         142.2110  140.7774  163.0501 C.2     1  UNL1        0.3010
      9 N         143.4105  140.1936  162.3644 N.am    1  UNL1       -0.2905
     10 N         142.3238  141.2823  164.4581 N.am    1  UNL1       -0.2849
     11 H         144.2719  140.1418  162.8384 H       1  UNL1        0.1509
     12 H         143.1851  141.2305  164.9321 H       1  UNL1        0.1513
     13 C         141.1243  141.8661  165.1439 C.3     1  UNL1        0.1181
     14 C         140.1686  140.9705  165.8750 C.ar    1  UNL1       -0.0026
     15 C         140.3290  140.7469  167.3496 C.ar    1  UNL1       -0.0026
     16 C         139.3733  139.8514  168.0807 C.ar    1  UNL1       -0.0003
     17 C         138.2572  139.1793  167.3373 C.ar    1  UNL1       -0.0000
     18 C         138.0968  139.4029  165.8628 C.ar    1  UNL1       -0.0003
     19 C         139.0525  140.2985  165.1316 C.ar    1  UNL1       -0.0026
     20 C         140.8805  143.3454  165.0986 C.3     1  UNL1        0.1317
     21 N         140.2076  143.9585  163.9063 N.ar    1  UNL1       -0.3058
     22 C         140.8961  144.5292  162.7021 C.ar    1  UNL1        0.0981
     23 C         139.8422  145.0319  161.7605 C.ar    1  UNL1        0.1193
     24 N         138.5023  144.7718  162.3828 N.ar    1  UNL1       -0.2223
     25 C         138.7282  144.1084  163.7090 C.ar    1  UNL1        0.1787
     26 C         142.9595  138.1743  156.7324 C.3     1  UNL1        0.1007
     27 C         142.7012  136.7191  156.4758 C.ar    1  UNL1        0.0129
     28 C         141.6156  136.1561  155.6072 C.ar    1  UNL1        0.0176
     29 C         141.7266  134.6606  155.6374 C.ar    1  UNL1        0.0799
     30 N         142.8809  134.2992  156.5246 N.ar    1  UNL1       -0.3038
     31 C         143.4832  135.5715  157.0428 C.ar    1  UNL1        0.0772
     32 C         143.3504  132.9096  156.8385 C.ar    1  UNL1        0.0640
     33 C         142.5723  131.7258  156.3456 C.ar    1  UNL1        0.0175
     34 C         143.0418  130.3362  156.6595 C.ar    1  UNL1        0.0053
     35 C         144.2894  130.1304  157.4663 C.ar    1  UNL1        0.0715
     36 C         145.0676  131.3142  157.9593 C.ar    1  UNL1        0.0053
     37 C         144.5981  132.7038  157.6454 C.ar    1  UNL1        0.0175
     38 C         144.7589  128.7408  157.7803 C.3     1  UNL1        0.4186
     39 F         145.2284  127.3512  158.0943 F       1  UNL1       -0.1659
     40 F         144.4076  128.3076  156.3878 F       1  UNL1       -0.1659
     41 F         145.1102  129.1740  159.1728 F       1  UNL1       -0.1659
@<TRIPOS>BOND
     1     7     8    2
     2     8     9   am
     3     9     1    1
     4     1     2    1
     5     2     3    1
     6     3     4    1
     7     4    26    1
     8    26    27    1
     9    27    28   ar
    10    28    29   ar
    11    29    30   ar
    12    30    32    1
    13    32    33   ar
    14    33    34   ar
    15    34    35   ar
    16    35    38    1
    17    38    39    1
    18    38    40    1
    19    38    41    1
    20    35    36   ar
    21    36    37   ar
    22    30    31   ar
    23     4     5    1
    24     5     6    1
    25     8    10   am
    26    10    13    1
    27    13    20    1
    28    20    21    1
    29    21    22   ar
    30    22    23   ar
    31    23    24   ar
    32    24    25   ar
    33    13    14    1
    34    14    15   ar
    35    15    16   ar
    36    16    17   ar
    37    17    18   ar
    38    18    19   ar
    39     6     1    1
    40    25    21   ar
    41    19    14   ar
    42    31    27   ar
    43    37    32   ar
    44     9    11    1
    45    10    12    1
@<TRIPOS>MOLECULE
*****
 41 45 0 0 0
SMALL
GASTEIGER

@<TRIPOS>ATOM
      1 C         143.2135  142.6487  158.1699 C.3     1  UNL1        0.0758
      2 C         142.0738  142.1856  157.3117 C.3     1  UNL1        0.0370
      3 C         142.2698  141.0471  156.3549 C.3     1  UNL1        0.0741
      4 N         143.6055  140.3717  156.2564 N.3     1  UNL1       -0.2688
      5 C         144.7452  140.8347  157.1146 C.3     1  UNL1        0.0741
      6 C         144.5492  141.9732  158.0713 C.3     1  UNL1        0.0370
      7 O         142.6351  142.0957  161.0612 O.2     1  UNL1       -0.2528
      8 C         142.7284  143.5107  160.5723 C.2     1  UNL1        0.3010
      9 N         143.0176  143.7872  159.1267 N.am    1  UNL1       -0.2905
     10 N         142.5325  144.6493  161.5291 N.am    1  UNL1       -0.2849
     11 H         143.0789  144.7160  158.8058 H       1  UNL1        0.1509
     12 H         142.5937  145.5780  161.2082 H       1  UNL1        0.1513
     13 C         142.2432  144.3728  162.9747 C.3     1  UNL1        0.1181
     14 C         140.8252  144.3380  163.4625 C.ar    1  UNL1       -0.0026
     15 C         139.6993  144.6350  162.5169 C.ar    1  UNL1       -0.0026
     16 C         138.2812  144.6002  163.0046 C.ar    1  UNL1       -0.0003
     17 C         137.9891  144.2683  164.4380 C.ar    1  UNL1       -0.0000
     18 C         139.1149  143.9713  165.3836 C.ar    1  UNL1       -0.0003
     19 C         140.5331  144.0061  164.8958 C.ar    1  UNL1       -0.0026
     20 C         143.3720  144.1311  163.9325 C.3     1  UNL1        0.1317
     21 N         143.9811  142.7650  164.0445 N.ar    1  UNL1       -0.3058
     22 C         143.3783  141.5860  164.7491 C.ar    1  UNL1        0.0981
     23 C         144.3246  140.4303  164.6117 C.ar    1  UNL1        0.1193
     24 N         145.5124  140.8951  163.8221 N.ar    1  UNL1       -0.2223
     25 C         145.3000  142.3380  163.4716 C.ar    1  UNL1        0.1787
     26 C         143.8014  139.2331  155.2996 C.3     1  UNL1        0.1007
     27 C         143.2898  137.8662  155.6456 C.ar    1  UNL1        0.0129
     28 C         141.8882  137.5281  156.0592 C.ar    1  UNL1        0.0176
     29 C         141.8221  136.0503  156.3080 C.ar    1  UNL1        0.0799
     30 N         143.1828  135.4751  156.0480 N.ar    1  UNL1       -0.3038
     31 C         144.0899  136.5975  155.6386 C.ar    1  UNL1        0.0772
     32 C         143.5687  134.0312  156.1751 C.ar    1  UNL1        0.0640
     33 C         143.3646  133.0959  155.0204 C.ar    1  UNL1        0.0175
     34 C         143.7505  131.6520  155.1475 C.ar    1  UNL1        0.0053
     35 C         144.3405  131.1434  156.4292 C.ar    1  UNL1        0.0715
     36 C         144.5447  132.0787  157.5840 C.ar    1  UNL1        0.0053
     37 C         144.1588  133.5226  157.4569 C.ar    1  UNL1        0.0175
     38 C         144.7264  129.6995  156.5563 C.3     1  UNL1        0.4186
     39 F         145.1123  128.2555  156.6833 F       1  UNL1       -0.1659
     40 F         144.2018  129.6830  157.9615 F       1  UNL1       -0.1659
     41 F         145.2511  129.7160  155.1511 F       1  UNL1       -0.1659
@<TRIPOS>BOND
     1     7     8    2
     2     8     9   am
     3     9     1    1
     4     1     2    1
     5     2     3    1
     6     3     4    1
     7     4    26    1
     8    26    27    1
     9    27    28   ar
    10    28    29   ar
    11    29    30   ar
    12    30    32    1
    13    32    33   ar
    14    33    34   ar
    15    34    35   ar
    16    35    38    1
    17    38    39    1
    18    38    40    1
    19    38    41    1
    20    35    36   ar
    21    36    37   ar
    22    30    31   ar
    23     4     5    1
    24     5     6    1
    25     8    10   am
    26    10    13    1
    27    13    20    1
    28    20    21    1
    29    21    22   ar
    30    22    23   ar
    31    23    24   ar
    32    24    25   ar
    33    13    14    1
    34    14    15   ar
    35    15    16   ar
    36    16    17   ar
    37    17    18   ar
    38    18    19   ar
    39     6     1    1
    40    25    21   ar
    41    19    14   ar
    42    31    27   ar
    43    37    32   ar
    44     9    11    1
    45    10    12    1
@<TRIPOS>MOLECULE
*****
 41 45 0 0 0
SMALL
GASTEIGER

@<TRIPOS>ATOM
      1 C         141.0812  144.5410  158.0249 C.3     1  UNL1        0.0758
      2 C         141.2602  143.1549  157.4804 C.3     1  UNL1        0.0370
      3 C         140.4121  142.6832  156.3366 C.3     1  UNL1        0.0741
      4 N         139.3852  143.5976  155.7374 N.3     1  UNL1       -0.2688
      5 C         139.2063  144.9838  156.2819 C.3     1  UNL1        0.0741
      6 C         140.0543  145.4555  157.4256 C.3     1  UNL1        0.0370
      7 O         140.8134  143.2540  160.7216 O.2     1  UNL1       -0.2528
      8 C         141.7953  144.3693  160.5171 C.2     1  UNL1        0.3010
      9 N         141.9293  145.0128  159.1688 N.am    1  UNL1       -0.2905
     10 N         142.6434  144.8411  161.6609 N.am    1  UNL1       -0.2849
     11 H         142.5738  145.7448  159.0346 H       1  UNL1        0.1509
     12 H         143.2879  145.5731  161.5267 H       1  UNL1        0.1513
     13 C         142.5095  144.1975  163.0092 C.3     1  UNL1        0.1181
     14 C         143.3792  143.0309  163.3731 C.ar    1  UNL1       -0.0026
     15 C         144.7845  142.9524  162.8545 C.ar    1  UNL1       -0.0026
     16 C         145.6542  141.7858  163.2183 C.ar    1  UNL1       -0.0003
     17 C         145.1186  140.6975  164.1008 C.ar    1  UNL1       -0.0000
     18 C         143.7133  140.7758  164.6194 C.ar    1  UNL1       -0.0003
     19 C         142.8436  141.9426  164.2555 C.ar    1  UNL1       -0.0026
     20 C         141.5058  144.7207  163.9936 C.3     1  UNL1        0.1317
     21 N         140.0646  144.3211  163.8793 N.ar    1  UNL1       -0.3058
     22 C         139.0378  144.9670  162.9970 C.ar    1  UNL1        0.0981
     23 C         137.7357  144.2506  163.1997 C.ar    1  UNL1        0.1193
     24 N         137.9577  143.1618  164.2074 N.ar    1  UNL1       -0.2223
     25 C         139.3970  143.2054  164.6274 C.ar    1  UNL1        0.1787
     26 C         138.5371  143.1259  154.5935 C.3     1  UNL1        0.1007
     27 C         137.5266  142.0382  154.8077 C.ar    1  UNL1        0.0129
     28 C         137.7062  140.5885  154.4673 C.ar    1  UNL1        0.0176
     29 C         136.4497  139.8636  154.8491 C.ar    1  UNL1        0.0799
     30 N         135.4936  140.8654  155.4256 N.ar    1  UNL1       -0.3038
     31 C         136.1592  142.2094  155.4000 C.ar    1  UNL1        0.0772
     32 C         134.1141  140.5743  155.9378 C.ar    1  UNL1        0.0640
     33 C         133.9187  139.5780  157.0419 C.ar    1  UNL1        0.0175
     34 C         132.5393  139.2869  157.5540 C.ar    1  UNL1        0.0053
     35 C         131.3552  139.9921  156.9620 C.ar    1  UNL1        0.0715
     36 C         131.5505  140.9884  155.8579 C.ar    1  UNL1        0.0053
     37 C         132.9299  141.2795  155.3457 C.ar    1  UNL1        0.0175
     38 C         129.9757  139.7010  157.4742 C.3     1  UNL1        0.4186
     39 F         128.5962  139.4099  157.9863 F       1  UNL1       -0.1659
     40 F         130.5415  138.6832  158.4197 F       1  UNL1       -0.1659
     41 F         129.4098  140.7188  156.5287 F       1  UNL1       -0.1659
@<TRIPOS>BOND
     1     7     8    2
     2     8     9   am
     3     9     1    1
     4     1     2    1
     5     2     3    1
     6     3     4    1
     7     4    26    1
     8    26    27    1
     9    27    28   ar
    10    28    29   ar
    11    29    30   ar
    12    30    32    1
    13    32    33   ar
    14    33    34   ar
    15    34    35   ar
    16    35    38    1
    17    38    39    1
    18    38    40    1
    19    38    41    1
    20    35    36   ar
    21    36    37   ar
    22    30    31   ar
    23     4     5    1
    24     5     6    1
    25     8    10   am
    26    10    13    1
    27    13    20    1
    28    20    21    1
    29    21    22   ar
    30    22    23   ar
    31    23    24   ar
    32    24    25   ar
    33    13    14    1
    34    14    15   ar
    35    15    16   ar
    36    16    17   ar
    37    17    18   ar
    38    18    19   ar
    39     6     1    1
    40    25    21   ar
    41    19    14   ar
    42    31    27   ar
    43    37    32   ar
    44     9    11    1
    45    10    12    1
@<TRIPOS>MOLECULE
*****
 41 45 0 0 0
SMALL
GASTEIGER

@<TRIPOS>ATOM
      1 C         143.3963  139.2066  160.9074 C.3     1  UNL1        0.0758
      2 C         142.9534  137.8388  160.4801 C.3     1  UNL1        0.0370
      3 C         142.8619  137.5017  159.0213 C.3     1  UNL1        0.0741
      4 N         143.2134  138.5325  157.9899 N.3     1  UNL1       -0.2688
      5 C         143.6564  139.9004  158.4172 C.3     1  UNL1        0.0741
      6 C         143.7478  140.2374  159.8759 C.3     1  UNL1        0.0370
      7 O         141.1484  140.6681  162.2531 O.2     1  UNL1       -0.2528
      8 C         142.3639  140.2745  163.0390 C.2     1  UNL1        0.3010
      9 N         143.4878  139.5438  162.3662 N.am    1  UNL1       -0.2905
     10 N         142.4553  140.6117  164.4978 N.am    1  UNL1       -0.2849
     11 H         144.2856  139.2855  162.8820 H       1  UNL1        0.1509
     12 H         143.2531  140.3533  165.0136 H       1  UNL1        0.1513
     13 C         141.3314  141.3424  165.1706 C.3     1  UNL1        0.1181
     14 C         140.2592  140.5746  165.8853 C.ar    1  UNL1       -0.0026
     15 C         139.2355  139.8086  165.1008 C.ar    1  UNL1       -0.0026
     16 C         138.1633  139.0408  165.8154 C.ar    1  UNL1       -0.0003
     17 C         138.1147  139.0389  167.3147 C.ar    1  UNL1       -0.0000
     18 C         139.1384  139.8048  168.0992 C.ar    1  UNL1       -0.0003
     19 C         140.2106  140.5726  167.3845 C.ar    1  UNL1       -0.0026
     20 C         141.2796  142.8409  165.1287 C.3     1  UNL1        0.1317
     21 N         142.0837  143.5909  164.1085 N.ar    1  UNL1       -0.3058
     22 C         143.5086  144.0340  164.2611 C.ar    1  UNL1        0.0981
     23 C         143.9097  144.7464  163.0035 C.ar    1  UNL1        0.1193
     24 N         142.7326  144.7437  162.0736 N.ar    1  UNL1       -0.2223
     25 C         141.6041  144.0295  162.7566 C.ar    1  UNL1        0.1787
     26 C         143.1219  138.1953  156.5311 C.3     1  UNL1        0.1007
     27 C         142.7260  136.8130  156.1042 C.ar    1  UNL1        0.0129
     28 C         141.3428  136.3671  155.7330 C.ar    1  UNL1        0.0176
     29 C         141.4057  134.9123  155.3729 C.ar    1  UNL1        0.0799
     30 N         142.8279  134.4591  155.5216 N.ar    1  UNL1       -0.3038
     31 C         143.6439  135.6337  155.9736 C.ar    1  UNL1        0.0772
     32 C         143.3435  133.0743  155.2637 C.ar    1  UNL1        0.0640
     33 C         142.7895  132.2673  154.1272 C.ar    1  UNL1        0.0175
     34 C         143.3051  130.8826  153.8692 C.ar    1  UNL1        0.0053
     35 C         144.3747  130.3048  154.7477 C.ar    1  UNL1        0.0715
     36 C         144.9288  131.1117  155.8843 C.ar    1  UNL1        0.0053
     37 C         144.4132  132.4965  156.1423 C.ar    1  UNL1        0.0175
     38 C         144.8903  128.9200  154.4898 C.3     1  UNL1        0.4186
     39 F         145.4060  127.5352  154.2317 F       1  UNL1       -0.1659
     40 F         144.3493  128.4717  155.8150 F       1  UNL1       -0.1659
     41 F         145.4314  129.3683  153.1644 F       1  UNL1       -0.1659
@<TRIPOS>BOND
     1     7     8    2
     2     8     9   am
     3     9     1    1
     4     1     2    1
     5     2     3    1
     6     3     4    1
     7     4    26    1
     8    26    27    1
     9    27    28   ar
    10    28    29   ar
    11    29    30   ar
    12    30    32    1
    13    32    33   ar
    14    33    34   ar
    15    34    35   ar
    16    35    38    1
    17    38    39    1
    18    38    40    1
    19    38    41    1
    20    35    36   ar
    21    36    37   ar
    22    30    31   ar
    23     4     5    1
    24     5     6    1
    25     8    10   am
    26    10    13    1
    27    13    20    1
    28    20    21    1
    29    21    22   ar
    30    22    23   ar
    31    23    24   ar
    32    24    25   ar
    33    13    14    1
    34    14    15   ar
    35    15    16   ar
    36    16    17   ar
    37    17    18   ar
    38    18    19   ar
    39     6     1    1
    40    25    21   ar
    41    19    14   ar
    42    31    27   ar
    43    37    32   ar
    44     9    11    1
    45    10    12    1
@<TRIPOS>MOLECULE
*****
 41 45 0 0 0
SMALL
GASTEIGER

@<TRIPOS>ATOM
      1 C         142.2661  142.9586  162.2549 C.3     1  UNL1        0.0758
      2 C         141.6326  143.0323  160.8973 C.3     1  UNL1        0.0370
      3 C         142.4798  142.9026  159.6663 C.3     1  UNL1        0.0741
      4 N         143.9606  142.6991  159.7929 N.3     1  UNL1       -0.2688
      5 C         144.5941  142.6253  161.1506 C.3     1  UNL1        0.0741
      6 C         143.7469  142.7551  162.3815 C.3     1  UNL1        0.0370
      7 O         141.4178  140.5045  163.7575 O.2     1  UNL1       -0.2528
      8 C         140.9948  141.8613  164.2372 C.2     1  UNL1        0.3010
      9 N         141.4189  143.0883  163.4860 N.am    1  UNL1       -0.2905
     10 N         140.1475  141.9910  165.4683 N.am    1  UNL1       -0.2849
     11 H         141.1412  143.9788  163.8008 H       1  UNL1        0.1509
     12 H         139.8699  142.8815  165.7832 H       1  UNL1        0.1513
     13 C         139.7234  140.7640  166.2196 C.3     1  UNL1        0.1181
     14 C         140.5232  140.2919  167.3975 C.ar    1  UNL1       -0.0026
     15 C         139.9439  140.3736  168.7787 C.ar    1  UNL1       -0.0026
     16 C         140.7437  139.9016  169.9566 C.ar    1  UNL1       -0.0003
     17 C         142.1228  139.3478  169.7533 C.ar    1  UNL1       -0.0000
     18 C         142.7022  139.2661  168.3722 C.ar    1  UNL1       -0.0003
     19 C         141.9024  139.7382  167.1942 C.ar    1  UNL1       -0.0026
     20 C         138.4995  140.0090  165.7930 C.3     1  UNL1        0.1317
     21 N         138.4435  139.3778  164.4334 N.ar    1  UNL1       -0.3058
     22 C         138.8896  137.9881  164.0876 C.ar    1  UNL1        0.0981
     23 C         138.6534  137.7769  162.6214 C.ar    1  UNL1        0.1193
     24 N         138.0614  139.0361  162.0611 N.ar    1  UNL1       -0.2223
     25 C         137.9317  140.0255  163.1810 C.ar    1  UNL1        0.1787
     26 C         144.8078  142.5694  158.5619 C.3     1  UNL1        0.1007
     27 C         144.4429  141.5727  157.5020 C.ar    1  UNL1        0.0129
     28 C         144.4710  141.8103  156.0212 C.ar    1  UNL1        0.0176
     29 C         144.0314  140.5479  155.3407 C.ar    1  UNL1        0.0799
     30 N         143.7317  139.5300  156.4010 N.ar    1  UNL1       -0.3038
     31 C         143.9860  140.1634  157.7367 C.ar    1  UNL1        0.0772
     32 C         143.2603  138.1254  156.1667 C.ar    1  UNL1        0.0640
     33 C         141.8695  137.7254  156.5609 C.ar    1  UNL1        0.0175
     34 C         141.3982  136.3208  156.3266 C.ar    1  UNL1        0.0053
     35 C         142.3177  135.3162  155.6981 C.ar    1  UNL1        0.0715
     36 C         143.7086  135.7161  155.3038 C.ar    1  UNL1        0.0053
     37 C         144.1799  137.1207  155.5381 C.ar    1  UNL1        0.0175
     38 C         141.8464  133.9116  155.4637 C.3     1  UNL1        0.4186
     39 F         141.3751  132.5069  155.2295 F       1  UNL1       -0.1659
     40 F         141.3655  134.3009  154.0973 F       1  UNL1       -0.1659
     41 F         142.3274  133.5222  156.8302 F       1  UNL1       -0.1659
@<TRIPOS>BOND
     1     7     8    2
     2     8     9   am
     3     9     1    1
     4     1     2    1
     5     2     3    1
     6     3     4    1
     7     4    26    1
     8    26    27    1
     9    27    28   ar
    10    28    29   ar
    11    29    30   ar
    12    30    32    1
    13    32    33   ar
    14    33    34   ar
    15    34    35   ar
    16    35    38    1
    17    38    39    1
    18    38    40    1
    19    38    41    1
    20    35    36   ar
    21    36    37   ar
    22    30    31   ar
    23     4     5    1
    24     5     6    1
    25     8    10   am
    26    10    13    1
    27    13    20    1
    28    20    21    1
    29    21    22   ar
    30    22    23   ar
    31    23    24   ar
    32    24    25   ar
    33    13    14    1
    34    14    15   ar
    35    15    16   ar
    36    16    17   ar
    37    17    18   ar
    38    18    19   ar
    39     6     1    1
    40    25    21   ar
    41    19    14   ar
    42    31    27   ar
    43    37    32   ar
    44     9    11    1
    45    10    12    1
@<TRIPOS>MOLECULE
*****
 41 45 0 0 0
SMALL
GASTEIGER

@<TRIPOS>ATOM
      1 C         138.8114  142.5351  159.6262 C.3     1  UNL1        0.0758
      2 C         139.7576  143.2036  158.6736 C.3     1  UNL1        0.0370
      3 C         140.0123  142.6019  157.3234 C.3     1  UNL1        0.0741
      4 N         139.3208  141.3315  156.9260 N.3     1  UNL1       -0.2688
      5 C         138.3746  140.6629  157.8786 C.3     1  UNL1        0.0741
      6 C         138.1199  141.2647  159.2288 C.3     1  UNL1        0.0370
      7 O         140.4336  141.6546  161.9913 O.2     1  UNL1       -0.2528
      8 C         139.3677  142.6966  162.1589 C.2     1  UNL1        0.3010
      9 N         138.5566  143.1369  160.9765 N.am    1  UNL1       -0.2905
     10 N         139.1130  143.2984  163.5092 N.am    1  UNL1       -0.2849
     11 H         137.8570  143.8208  161.0865 H       1  UNL1        0.1509
     12 H         138.4134  143.9823  163.6192 H       1  UNL1        0.1513
     13 C         139.9241  142.8582  164.6916 C.3     1  UNL1        0.1181
     14 C         139.5049  141.6545  165.4824 C.ar    1  UNL1       -0.0026
     15 C         140.0921  141.4075  166.8405 C.ar    1  UNL1       -0.0026
     16 C         139.6729  140.2039  167.6312 C.ar    1  UNL1       -0.0003
     17 C         138.6665  139.2471  167.0640 C.ar    1  UNL1       -0.0000
     18 C         138.0793  139.4940  165.7060 C.ar    1  UNL1       -0.0003
     19 C         138.4985  140.6977  164.9151 C.ar    1  UNL1       -0.0026
     20 C         141.1544  143.6217  165.0833 C.3     1  UNL1        0.1317
     21 N         142.2877  143.7676  164.1115 N.ar    1  UNL1       -0.3058
     22 C         143.2817  142.7039  163.7503 C.ar    1  UNL1        0.0981
     23 C         144.2343  143.2817  162.7459 C.ar    1  UNL1        0.1193
     24 N         143.8289  144.7024  162.4863 N.ar    1  UNL1       -0.2223
     25 C         142.6258  145.0027  163.3304 C.ar    1  UNL1        0.1787
     26 C         139.5755  140.7297  155.5757 C.3     1  UNL1        0.1007
     27 C         139.7099  139.2428  155.4306 C.ar    1  UNL1        0.0129
     28 C         138.6320  138.2995  154.9853 C.ar    1  UNL1        0.0176
     29 C         139.2016  136.9119  154.9847 C.ar    1  UNL1        0.0799
     30 N         140.6315  136.9976  155.4296 N.ar    1  UNL1       -0.3038
     31 C         140.9456  138.4382  155.7052 C.ar    1  UNL1        0.0772
     32 C         141.5807  135.8450  155.5737 C.ar    1  UNL1        0.0640
     33 C         141.2894  134.5433  154.8876 C.ar    1  UNL1        0.0175
     34 C         142.2386  133.3908  155.0317 C.ar    1  UNL1        0.0053
     35 C         143.4789  133.5399  155.8618 C.ar    1  UNL1        0.0715
     36 C         143.7702  134.8416  156.5478 C.ar    1  UNL1        0.0053
     37 C         142.8211  135.9942  156.4038 C.ar    1  UNL1        0.0175
     38 C         144.4281  132.3874  156.0058 C.3     1  UNL1        0.4186
     39 F         145.3772  131.2348  156.1498 F       1  UNL1       -0.1659
     40 F         144.8903  132.9329  157.3244 F       1  UNL1       -0.1659
     41 F         143.9658  131.8418  154.6872 F       1  UNL1       -0.1659
@<TRIPOS>BOND
     1     7     8    2
     2     8     9   am
     3     9     1    1
     4     1     2    1
     5     2     3    1
     6     3     4    1
     7     4    26    1
     8    26    27    1
     9    27    28   ar
    10    28    29   ar
    11    29    30   ar
    12    30    32    1
    13    32    33   ar
    14    33    34   ar
    15    34    35   ar
    16    35    38    1
    17    38    39    1
    18    38    40    1
    19    38    41    1
    20    35    36   ar
    21    36    37   ar
    22    30    31   ar
    23     4     5    1
    24     5     6    1
    25     8    10   am
    26    10    13    1
    27    13    20    1
    28    20    21    1
    29    21    22   ar
    30    22    23   ar
    31    23    24   ar
    32    24    25   ar
    33    13    14    1
    34    14    15   ar
    35    15    16   ar
    36    16    17   ar
    37    17    18   ar
    38    18    19   ar
    39     6     1    1
    40    25    21   ar
    41    19    14   ar
    42    31    27   ar
    43    37    32   ar
    44     9    11    1
    45    10    12    1
@<TRIPOS>MOLECULE
*****
 41 45 0 0 0
SMALL
GASTEIGER

@<TRIPOS>ATOM
      1 C         140.1991  139.1241  161.5319 C.3     1  UNL1        0.0758
      2 C         141.3718  138.1889  161.5382 C.3     1  UNL1        0.0370
      3 C         142.1251  137.9221  160.2688 C.3     1  UNL1        0.0741
      4 N         141.7057  138.5906  158.9932 N.3     1  UNL1       -0.2688
      5 C         140.5330  139.5258  158.9869 C.3     1  UNL1        0.0741
      6 C         139.7797  139.7925  160.2562 C.3     1  UNL1        0.0370
      7 O         141.4226  140.8348  163.6712 O.2     1  UNL1       -0.2528
      8 C         140.0574  140.2462  163.8709 C.2     1  UNL1        0.3010
      9 N         139.4457  139.3909  162.8013 N.am    1  UNL1       -0.2905
     10 N         139.3040  140.5130  165.1403 N.am    1  UNL1       -0.2849
     11 H         138.5497  139.0046  162.9324 H       1  UNL1        0.1509
     12 H         138.4080  140.1267  165.2714 H       1  UNL1        0.1513
     13 C         139.9158  141.3684  166.2099 C.3     1  UNL1        0.1181
     14 C         140.5272  140.7305  167.4220 C.ar    1  UNL1       -0.0026
     15 C         141.9131  140.1610  167.3514 C.ar    1  UNL1       -0.0026
     16 C         142.5245  139.5232  168.5636 C.ar    1  UNL1       -0.0003
     17 C         141.7499  139.4548  169.8463 C.ar    1  UNL1       -0.0000
     18 C         140.3640  140.0242  169.9169 C.ar    1  UNL1       -0.0003
     19 C         139.7526  140.6621  168.7047 C.ar    1  UNL1       -0.0026
     20 C         139.9162  142.8616  166.0673 C.3     1  UNL1        0.1317
     21 N         139.2733  143.5011  164.8725 N.ar    1  UNL1       -0.3058
     22 C         139.9761  144.2992  163.8147 C.ar    1  UNL1        0.0981
     23 C         138.9518  144.7462  162.8141 C.ar    1  UNL1        0.1193
     24 N         137.6159  144.2243  163.2536 N.ar    1  UNL1       -0.2223
     25 C         137.8146  143.4548  164.5257 C.ar    1  UNL1        0.1787
     26 C         142.4591  138.3238  157.7238 C.3     1  UNL1        0.1007
     27 C         142.2473  137.0373  156.9821 C.ar    1  UNL1        0.0129
     28 C         141.0910  136.7192  156.0811 C.ar    1  UNL1        0.0176
     29 C         141.2835  135.3284  155.5534 C.ar    1  UNL1        0.0799
     30 N         142.5588  134.7869  156.1283 N.ar    1  UNL1       -0.3038
     31 C         143.1544  135.8431  157.0113 C.ar    1  UNL1        0.0772
     32 C         143.1370  133.4279  155.8661 C.ar    1  UNL1        0.0640
     33 C         142.4445  132.4869  154.9254 C.ar    1  UNL1        0.0175
     34 C         143.0226  131.1279  154.6633 C.ar    1  UNL1        0.0053
     35 C         144.2933  130.7098  155.3418 C.ar    1  UNL1        0.0715
     36 C         144.9859  131.6507  156.2826 C.ar    1  UNL1        0.0053
     37 C         144.4077  133.0098  156.5447 C.ar    1  UNL1        0.0175
     38 C         144.8714  129.3508  155.0797 C.3     1  UNL1        0.4186
     39 F         145.4496  127.9917  154.8175 F       1  UNL1       -0.1659
     40 F         144.5980  128.9601  156.5019 F       1  UNL1       -0.1659
     41 F         145.1449  129.7414  153.6574 F       1  UNL1       -0.1659
@<TRIPOS>BOND
     1     7     8    2
     2     8     9   am
     3     9     1    1
     4     1     2    1
     5     2     3    1
     6     3     4    1
     7     4    26    1
     8    26    27    1
     9    27    28   ar
    10    28    29   ar
    11    29    30   ar
    12    30    32    1
    13    32    33   ar
    14    33    34   ar
    15    34    35   ar
    16    35    38    1
    17    38    39    1
    18    38    40    1
    19    38    41    1
    20    35    36   ar
    21    36    37   ar
    22    30    31   ar
    23     4     5    1
    24     5     6    1
    25     8    10   am
    26    10    13    1
    27    13    20    1
    28    20    21    1
    29    21    22   ar
    30    22    23   ar
    31    23    24   ar
    32    24    25   ar
    33    13    14    1
    34    14    15   ar
    35    15    16   ar
    36    16    17   ar
    37    17    18   ar
    38    18    19   ar
    39     6     1    1
    40    25    21   ar
    41    19    14   ar
    42    31    27   ar
    43    37    32   ar
    44     9    11    1
    45    10    12    1
