@<TRIPOS>MOLECULE
*****
 29 33 0 0 0
SMALL
GASTEIGER

@<TRIPOS>ATOM
      1 C         143.8849  140.0284  164.7683 C.3     1  UNL1        0.0294
      2 C         145.1359  140.3138  163.9915 C.3     1  UNL1        0.0666
      3 S         145.5703  141.7314  163.7638 S.3     1  UNL1       -0.0756
      4 C         142.7990  144.1542  162.5325 C.ar    1  UNL1        0.2029
      5 N         143.1352  144.7523  163.8664 N.ar    1  UNL1       -0.1250
      6 N         144.2143  143.9175  164.4900 N.ar    1  UNL1       -0.1220
      7 C         144.5449  142.8035  163.5415 C.ar    1  UNL1        0.1933
      8 N         143.6703  142.9498  162.3317 N.ar    1  UNL1       -0.2860
      9 C         143.6674  142.0497  161.1318 C.3     1  UNL1        0.1341
     10 C         139.7270  144.9784  163.2621 C.3     1  UNL1        0.0556
     11 C         140.3599  145.0488  161.9040 C.ar    1  UNL1        0.1001
     12 N         139.6918  145.5104  160.6428 N.ar    1  UNL1       -0.2085
     13 C         140.6910  145.4168  159.5280 C.ar    1  UNL1        0.2849
     14 O         141.9766  144.8974  160.1002 O.2     1  UNL1       -0.4283
     15 C         141.7719  144.6699  161.5686 C.ar    1  UNL1        0.1964
     16 C         143.1689  138.7232  164.5837 C.3     1  UNL1        0.0730
     17 N         141.7095  138.6154  164.9129 N.3     1  UNL1       -0.2724
     18 C         140.8362  137.6658  164.1477 C.3     1  UNL1        0.0721
     19 C         139.3768  137.5579  164.4769 C.3     1  UNL1        0.0177
     20 C         138.7905  138.3998  165.5714 C.3     1  UNL1        0.0068
     21 C         138.2044  139.2416  166.6658 C.3     1  UNL1        0.0058
     22 C         139.6638  139.3494  166.3366 C.3     1  UNL1        0.0337
     23 C         141.1233  139.4572  166.0073 C.3     1  UNL1        0.0761
     24 C         139.8296  140.3837  167.4102 C.ar    1  UNL1       -0.0215
     25 C         139.3617  140.0971  168.8063 C.ar    1  UNL1       -0.0042
     26 C         139.5275  141.1314  169.8800 C.ar    1  UNL1       -0.0003
     27 C         140.1611  142.4522  169.5576 C.ar    1  UNL1       -0.0000
     28 C         140.6289  142.7388  168.1616 C.ar    1  UNL1       -0.0003
     29 C         140.4632  141.7045  167.0878 C.ar    1  UNL1       -0.0042
@<TRIPOS>BOND
     1    10    11    1
     2    11    12   ar
     3    12    13   ar
     4    13    14   ar
     5    14    15   ar
     6    15     4    1
     7     4     5   ar
     8     5     6   ar
     9     6     7   ar
    10     7     3    1
    11     3     2    1
    12     2     1    1
    13     1    16    1
    14    16    17    1
    15    17    18    1
    16    18    19    1
    17    19    20    1
    18    20    21    1
    19    21    22    1
    20    22    24    1
    21    24    25   ar
    22    25    26   ar
    23    26    27   ar
    24    27    28   ar
    25    28    29   ar
    26    22    23    1
    27     7     8   ar
    28     8     9    1
    29    15    11   ar
    30     8     4   ar
    31    23    17    1
    32    22    20    1
    33    29    24   ar
@<TRIPOS>MOLECULE
*****
 29 33 0 0 0
SMALL
GASTEIGER

@<TRIPOS>ATOM
      1 C         137.8438  142.8396  162.3808 C.3     1  UNL1        0.0294
      2 C         137.9938  144.1542  163.0874 C.3     1  UNL1        0.0666
      3 S         139.1218  145.0749  162.7270 S.3     1  UNL1       -0.0756
      4 C         142.5383  143.2720  162.3484 C.ar    1  UNL1        0.2029
      5 N         142.4530  144.0084  161.0443 N.ar    1  UNL1       -0.1250
      6 N         141.1628  144.7734  161.0274 N.ar    1  UNL1       -0.1220
      7 C         140.4507  144.5098  162.3210 C.ar    1  UNL1        0.1933
      8 N         141.3008  143.5819  163.1374 N.ar    1  UNL1       -0.2860
      9 C         140.9713  143.0563  164.5031 C.3     1  UNL1        0.1341
     10 C         142.4369  140.0175  162.5645 C.3     1  UNL1        0.0556
     11 C         143.6168  140.8861  162.8858 C.ar    1  UNL1        0.1001
     12 N         144.9574  140.4113  163.3628 N.ar    1  UNL1       -0.2085
     13 C         145.8324  141.6138  163.5583 C.ar    1  UNL1        0.2849
     14 O         145.0327  142.8318  163.2021 O.2     1  UNL1       -0.4283
     15 C         143.6635  142.3821  162.7864 C.ar    1  UNL1        0.1964
     16 C         137.2040  141.6791  163.0836 C.3     1  UNL1        0.0730
     17 N         137.9459  140.3825  163.2189 N.3     1  UNL1       -0.2724
     18 C         137.8698  139.3573  162.1265 C.3     1  UNL1        0.0721
     19 C         138.6117  138.0607  162.2618 C.3     1  UNL1        0.0177
     20 C         139.4298  137.7893  163.4894 C.3     1  UNL1        0.0068
     21 C         140.2479  137.5178  164.7170 C.3     1  UNL1        0.0058
     22 C         139.5059  138.8144  164.5818 C.3     1  UNL1        0.0337
     23 C         138.7640  140.1111  164.4465 C.3     1  UNL1        0.0761
     24 C         140.0222  139.2496  165.9212 C.ar    1  UNL1       -0.0215
     25 C         141.4996  139.3636  166.1546 C.ar    1  UNL1       -0.0042
     26 C         142.0159  139.7987  167.4940 C.ar    1  UNL1       -0.0003
     27 C         141.0549  140.1199  168.6001 C.ar    1  UNL1       -0.0000
     28 C         139.5775  140.0059  168.3667 C.ar    1  UNL1       -0.0003
     29 C         139.0612  139.5708  167.0272 C.ar    1  UNL1       -0.0042
@<TRIPOS>BOND
     1    10    11    1
     2    11    12   ar
     3    12    13   ar
     4    13    14   ar
     5    14    15   ar
     6    15     4    1
     7     4     5   ar
     8     5     6   ar
     9     6     7   ar
    10     7     3    1
    11     3     2    1
    12     2     1    1
    13     1    16    1
    14    16    17    1
    15    17    18    1
    16    18    19    1
    17    19    20    1
    18    20    21    1
    19    21    22    1
    20    22    24    1
    21    24    25   ar
    22    25    26   ar
    23    26    27   ar
    24    27    28   ar
    25    28    29   ar
    26    22    23    1
    27     7     8   ar
    28     8     9    1
    29    15    11   ar
    30     8     4   ar
    31    23    17    1
    32    22    20    1
    33    29    24   ar
@<TRIPOS>MOLECULE
*****
 29 33 0 0 0
SMALL
GASTEIGER

@<TRIPOS>ATOM
      1 C         145.0836  140.2399  164.0948 C.3     1  UNL1        0.0294
      2 C         145.6058  141.5703  163.6396 C.3     1  UNL1        0.0666
      3 S         144.8153  142.8170  163.9054 S.3     1  UNL1       -0.0756
      4 C         140.9569  142.4728  164.1500 C.ar    1  UNL1        0.2029
      5 N         141.3223  142.6704  165.5914 N.ar    1  UNL1       -0.1250
      6 N         142.8121  142.8234  165.6752 N.ar    1  UNL1       -0.1220
      7 C         143.3675  142.7204  164.2856 C.ar    1  UNL1        0.1933
      8 N         142.2209  142.5037  163.3430 N.ar    1  UNL1       -0.2860
      9 C         142.3208  142.3456  161.8547 C.3     1  UNL1        0.1341
     10 C         139.1194  144.7564  162.7155 C.3     1  UNL1        0.0556
     11 C         138.7263  143.3281  162.9510 C.ar    1  UNL1        0.1001
     12 N         137.4195  142.6987  162.5686 N.ar    1  UNL1       -0.2085
     13 C         137.4566  141.2601  162.9916 C.ar    1  UNL1        0.2849
     14 O         138.7862  141.0004  163.6355 O.2     1  UNL1       -0.4283
     15 C         139.5709  142.2785  163.6104 C.ar    1  UNL1        0.1964
     16 C         144.4449  139.3074  163.1085 C.3     1  UNL1        0.0730
     17 N         143.0554  138.7970  163.3503 N.3     1  UNL1       -0.2724
     18 C         142.3574  137.9928  162.2938 C.3     1  UNL1        0.0721
     19 C         140.9678  137.4823  162.5356 C.3     1  UNL1        0.0177
     20 C         140.2762  137.7761  163.8338 C.3     1  UNL1        0.0068
     21 C         139.5846  138.0698  165.1321 C.3     1  UNL1        0.0058
     22 C         140.9742  138.5802  164.8903 C.3     1  UNL1        0.0337
     23 C         142.3638  139.0907  164.6485 C.3     1  UNL1        0.0761
     24 C         140.9778  139.2141  166.2498 C.ar    1  UNL1       -0.0215
     25 C         139.6878  139.6562  166.8747 C.ar    1  UNL1       -0.0042
     26 C         139.6914  140.2901  168.2341 C.ar    1  UNL1       -0.0003
     27 C         140.9851  140.4819  168.9687 C.ar    1  UNL1       -0.0000
     28 C         142.2751  140.0398  168.3439 C.ar    1  UNL1       -0.0003
     29 C         142.2715  139.4059  166.9844 C.ar    1  UNL1       -0.0042
@<TRIPOS>BOND
     1    10    11    1
     2    11    12   ar
     3    12    13   ar
     4    13    14   ar
     5    14    15   ar
     6    15     4    1
     7     4     5   ar
     8     5     6   ar
     9     6     7   ar
    10     7     3    1
    11     3     2    1
    12     2     1    1
    13     1    16    1
    14    16    17    1
    15    17    18    1
    16    18    19    1
    17    19    20    1
    18    20    21    1
    19    21    22    1
    20    22    24    1
    21    24    25   ar
    22    25    26   ar
    23    26    27   ar
    24    27    28   ar
    25    28    29   ar
    26    22    23    1
    27     7     8   ar
    28     8     9    1
    29    15    11   ar
    30     8     4   ar
    31    23    17    1
    32    22    20    1
    33    29    24   ar
@<TRIPOS>MOLECULE
*****
 29 33 0 0 0
SMALL
GASTEIGER

@<TRIPOS>ATOM
      1 C         144.0384  139.7117  164.6565 C.3     1  UNL1        0.0294
      2 C         144.7341  139.6084  163.3317 C.3     1  UNL1        0.0666
      3 S         144.2861  140.4599  162.1810 S.3     1  UNL1       -0.0756
      4 C         141.6039  143.2136  162.7188 C.ar    1  UNL1        0.2029
      5 N         142.8674  143.9946  162.9286 N.ar    1  UNL1       -0.1250
      6 N         144.0258  143.0581  162.7527 N.ar    1  UNL1       -0.1220
      7 C         143.4785  141.6984  162.4342 C.ar    1  UNL1        0.1933
      8 N         141.9817  141.7945  162.4132 N.ar    1  UNL1       -0.2860
      9 C         141.0297  140.6690  162.1355 C.3     1  UNL1        0.1341
     10 C         140.3229  145.5096  160.7859 C.3     1  UNL1        0.0556
     11 C         139.6192  144.8118  161.9119 C.ar    1  UNL1        0.1001
     12 N         138.2031  145.0468  162.3471 N.ar    1  UNL1       -0.2085
     13 C         137.9167  144.1367  163.5045 C.ar    1  UNL1        0.2849
     14 O         139.1559  143.3392  163.7846 O.2     1  UNL1       -0.4283
     15 C         140.2080  143.7564  162.8003 C.ar    1  UNL1        0.1964
     16 C         143.3387  138.5159  165.2315 C.3     1  UNL1        0.0730
     17 N         141.8468  138.5227  165.3870 N.3     1  UNL1       -0.2724
     18 C         141.0006  137.6162  164.5431 C.3     1  UNL1        0.0721
     19 C         139.5087  137.6231  164.6985 C.3     1  UNL1        0.0177
     20 C         138.8630  138.5365  165.6979 C.3     1  UNL1        0.0068
     21 C         138.2173  139.4500  166.6972 C.3     1  UNL1        0.0058
     22 C         139.7092  139.4431  166.5418 C.3     1  UNL1        0.0337
     23 C         141.2011  139.4362  166.3863 C.3     1  UNL1        0.0761
     24 C         139.8249  140.4938  167.6060 C.ar    1  UNL1       -0.0215
     25 C         140.3939  141.8408  167.2713 C.ar    1  UNL1       -0.0042
     26 C         140.5096  142.8915  168.3355 C.ar    1  UNL1       -0.0003
     27 C         140.0564  142.5954  169.7344 C.ar    1  UNL1       -0.0000
     28 C         139.4874  141.2484  170.0691 C.ar    1  UNL1       -0.0003
     29 C         139.3717  140.1976  169.0049 C.ar    1  UNL1       -0.0042
@<TRIPOS>BOND
     1    10    11    1
     2    11    12   ar
     3    12    13   ar
     4    13    14   ar
     5    14    15   ar
     6    15     4    1
     7     4     5   ar
     8     5     6   ar
     9     6     7   ar
    10     7     3    1
    11     3     2    1
    12     2     1    1
    13     1    16    1
    14    16    17    1
    15    17    18    1
    16    18    19    1
    17    19    20    1
    18    20    21    1
    19    21    22    1
    20    22    24    1
    21    24    25   ar
    22    25    26   ar
    23    26    27   ar
    24    27    28   ar
    25    28    29   ar
    26    22    23    1
    27     7     8   ar
    28     8     9    1
    29    15    11   ar
    30     8     4   ar
    31    23    17    1
    32    22    20    1
    33    29    24   ar
@<TRIPOS>MOLECULE
*****
 29 33 0 0 0
SMALL
GASTEIGER

@<TRIPOS>ATOM
      1 C         144.0038  139.8566  163.7747 C.3     1  UNL1        0.0294
      2 C         145.2818  140.6060  164.0089 C.3     1  UNL1        0.0666
      3 S         145.6139  141.8034  163.1687 S.3     1  UNL1       -0.0756
      4 C         142.7369  143.9356  161.6710 C.ar    1  UNL1        0.2029
      5 N         143.0608  144.7156  162.9106 N.ar    1  UNL1       -0.1250
      6 N         144.1779  144.0119  163.6225 N.ar    1  UNL1       -0.1220
      7 C         144.5445  142.7969  162.8229 C.ar    1  UNL1        0.1933
      8 N         143.6539  142.7497  161.6168 N.ar    1  UNL1       -0.2860
      9 C         143.6763  141.7008  160.5447 C.3     1  UNL1        0.1341
     10 C         139.8777  142.4099  161.2883 C.3     1  UNL1        0.0556
     11 C         140.3672  143.5794  160.4868 C.ar    1  UNL1        0.1001
     12 N         139.6284  144.2531  159.3685 N.ar    1  UNL1       -0.2085
     13 C         140.4860  145.3706  158.8534 C.ar    1  UNL1        0.2849
     14 O         141.7549  145.3877  159.6532 O.2     1  UNL1       -0.4283
     15 C         141.6814  144.2807  160.6626 C.ar    1  UNL1        0.1964
     16 C         143.2694  139.2464  164.9316 C.3     1  UNL1        0.0730
     17 N         141.7760  139.1135  164.8859 N.3     1  UNL1       -0.2724
     18 C         141.1442  137.7531  164.8727 C.3     1  UNL1        0.0721
     19 C         139.6508  137.6202  164.8270 C.3     1  UNL1        0.0177
     20 C         138.7892  138.8476  164.7946 C.3     1  UNL1        0.0068
     21 C         137.9276  140.0751  164.7622 C.3     1  UNL1        0.0058
     22 C         139.4210  140.2080  164.8078 C.3     1  UNL1        0.0337
     23 C         140.9145  140.3409  164.8535 C.3     1  UNL1        0.0761
     24 C         139.2884  141.7021  164.7968 C.ar    1  UNL1       -0.0215
     25 C         140.4938  142.5638  165.0301 C.ar    1  UNL1       -0.0042
     26 C         140.3611  144.0579  165.0191 C.ar    1  UNL1       -0.0003
     27 C         139.0231  144.6903  164.7746 C.ar    1  UNL1       -0.0000
     28 C         137.8177  143.8286  164.5412 C.ar    1  UNL1       -0.0003
     29 C         137.9503  142.3344  164.5523 C.ar    1  UNL1       -0.0042
@<TRIPOS>BOND
     1    10    11    1
     2    11    12   ar
     3    12    13   ar
     4    13    14   ar
     5    14    15   ar
     6    15     4    1
     7     4     5   ar
     8     5     6   ar
     9     6     7   ar
    10     7     3    1
    11     3     2    1
    12     2     1    1
    13     1    16    1
    14    16    17    1
    15    17    18    1
    16    18    19    1
    17    19    20    1
    18    20    21    1
    19    21    22    1
    20    22    24    1
    21    24    25   ar
    22    25    26   ar
    23    26    27   ar
    24    27    28   ar
    25    28    29   ar
    26    22    23    1
    27     7     8   ar
    28     8     9    1
    29    15    11   ar
    30     8     4   ar
    31    23    17    1
    32    22    20    1
    33    29    24   ar
@<TRIPOS>MOLECULE
*****
 29 33 0 0 0
SMALL
GASTEIGER

@<TRIPOS>ATOM
      1 C         143.6919  144.7860  164.1861 C.3     1  UNL1        0.0294
      2 C         142.3514  145.3522  163.8222 C.3     1  UNL1        0.0666
      3 S         141.5084  144.6749  162.7827 S.3     1  UNL1       -0.0756
      4 C         139.4110  141.4455  163.2703 C.ar    1  UNL1        0.2029
      5 N         138.8107  142.3412  164.3131 N.ar    1  UNL1       -0.1250
      6 N         139.5233  143.6599  164.2574 N.ar    1  UNL1       -0.1220
      7 C         140.5640  143.5793  163.1801 C.ar    1  UNL1        0.1933
      8 N         140.4946  142.2107  162.5701 N.ar    1  UNL1       -0.2860
      9 C         141.3573  141.6974  161.4555 C.3     1  UNL1        0.1341
     10 C         139.6624  138.9142  165.3144 C.3     1  UNL1        0.0556
     11 C         139.1154  138.8692  163.9185 C.ar    1  UNL1        0.1001
     12 N         138.5879  137.6528  163.2170 N.ar    1  UNL1       -0.2085
     13 C         138.1464  138.0645  161.8439 C.ar    1  UNL1        0.2849
     14 O         138.4010  139.5354  161.6967 O.2     1  UNL1       -0.4283
     15 C         138.9999  140.0327  162.9789 C.ar    1  UNL1        0.1964
     16 C         144.1204  143.4587  163.6342 C.3     1  UNL1        0.0730
     17 N         143.8357  142.2007  164.4000 N.3     1  UNL1       -0.2724
     18 C         144.1904  140.8676  163.8111 C.3     1  UNL1        0.0721
     19 C         143.9057  139.6097  164.5769 C.3     1  UNL1        0.0177
     20 C         143.2663  139.6849  165.9318 C.3     1  UNL1        0.0068
     21 C         142.6270  139.7602  167.2866 C.3     1  UNL1        0.0058
     22 C         142.9117  141.0181  166.5208 C.3     1  UNL1        0.0337
     23 C         143.1964  142.2760  165.7549 C.3     1  UNL1        0.0761
     24 C         142.3379  141.8312  167.6430 C.ar    1  UNL1       -0.0215
     25 C         143.1649  142.1167  168.8615 C.ar    1  UNL1       -0.0042
     26 C         142.5910  142.9298  169.9838 C.ar    1  UNL1       -0.0003
     27 C         141.1902  143.4575  169.8876 C.ar    1  UNL1       -0.0000
     28 C         140.3632  143.1720  168.6692 C.ar    1  UNL1       -0.0003
     29 C         140.9371  142.3589  167.5469 C.ar    1  UNL1       -0.0042
@<TRIPOS>BOND
     1    10    11    1
     2    11    12   ar
     3    12    13   ar
     4    13    14   ar
     5    14    15   ar
     6    15     4    1
     7     4     5   ar
     8     5     6   ar
     9     6     7   ar
    10     7     3    1
    11     3     2    1
    12     2     1    1
    13     1    16    1
    14    16    17    1
    15    17    18    1
    16    18    19    1
    17    19    20    1
    18    20    21    1
    19    21    22    1
    20    22    24    1
    21    24    25   ar
    22    25    26   ar
    23    26    27   ar
    24    27    28   ar
    25    28    29   ar
    26    22    23    1
    27     7     8   ar
    28     8     9    1
    29    15    11   ar
    30     8     4   ar
    31    23    17    1
    32    22    20    1
    33    29    24   ar
@<TRIPOS>MOLECULE
*****
 29 33 0 0 0
SMALL
GASTEIGER

@<TRIPOS>ATOM
      1 C         138.3671  138.9472  162.3414 C.3     1  UNL1        0.0294
      2 C         139.0275  137.8278  163.0902 C.3     1  UNL1        0.0666
      3 S         140.2604  138.0934  163.9023 S.3     1  UNL1       -0.0756
      4 C         140.7251  139.8185  167.3481 C.ar    1  UNL1        0.2029
      5 N         139.2315  139.8416  167.2115 N.ar    1  UNL1       -0.1250
      6 N         138.8756  139.1982  165.9040 N.ar    1  UNL1       -0.1220
      7 C         140.1492  138.7774  165.2326 C.ar    1  UNL1        0.1933
      8 N         141.2923  139.1608  166.1251 N.ar    1  UNL1       -0.2860
      9 C         142.7471  138.9274  165.8440 C.3     1  UNL1        0.1341
     10 C         140.6161  142.8761  168.4830 C.3     1  UNL1        0.0556
     11 C         141.4630  141.7637  169.0263 C.ar    1  UNL1        0.1001
     12 N         142.4085  141.8614  170.1867 N.ar    1  UNL1       -0.2085
     13 C         143.0430  140.5163  170.3822 C.ar    1  UNL1        0.2849
     14 O         142.4896  139.5873  169.3426 O.2     1  UNL1       -0.4283
     15 C         141.5131  140.3582  168.5047 C.ar    1  UNL1        0.1964
     16 C         139.1343  140.1989  162.0336 C.3     1  UNL1        0.0730
     17 N         138.8964  141.4416  162.8393 N.3     1  UNL1       -0.2724
     18 C         137.4968  141.9297  163.0696 C.3     1  UNL1        0.0721
     19 C         137.2589  143.1723  163.8752 C.3     1  UNL1        0.0177
     20 C         138.4206  143.9270  164.4506 C.3     1  UNL1        0.0068
     21 C         139.5822  144.6817  165.0260 C.3     1  UNL1        0.0058
     22 C         139.8201  143.4390  164.2203 C.3     1  UNL1        0.0337
     23 C         140.0580  142.1963  163.4146 C.3     1  UNL1        0.0761
     24 C         141.2988  143.5929  164.4195 C.ar    1  UNL1       -0.0215
     25 C         142.0649  142.5540  165.1837 C.ar    1  UNL1       -0.0042
     26 C         143.5435  142.7079  165.3829 C.ar    1  UNL1       -0.0003
     27 C         144.2563  143.9008  164.8180 C.ar    1  UNL1       -0.0000
     28 C         143.4903  144.9397  164.0539 C.ar    1  UNL1       -0.0003
     29 C         142.0115  144.7858  163.8547 C.ar    1  UNL1       -0.0042
@<TRIPOS>BOND
     1    10    11    1
     2    11    12   ar
     3    12    13   ar
     4    13    14   ar
     5    14    15   ar
     6    15     4    1
     7     4     5   ar
     8     5     6   ar
     9     6     7   ar
    10     7     3    1
    11     3     2    1
    12     2     1    1
    13     1    16    1
    14    16    17    1
    15    17    18    1
    16    18    19    1
    17    19    20    1
    18    20    21    1
    19    21    22    1
    20    22    24    1
    21    24    25   ar
    22    25    26   ar
    23    26    27   ar
    24    27    28   ar
    25    28    29   ar
    26    22    23    1
    27     7     8   ar
    28     8     9    1
    29    15    11   ar
    30     8     4   ar
    31    23    17    1
    32    22    20    1
    33    29    24   ar
@<TRIPOS>MOLECULE
*****
 29 33 0 0 0
SMALL
GASTEIGER

@<TRIPOS>ATOM
      1 C         142.4982  144.9193  163.9533 C.3     1  UNL1        0.0294
      2 C         143.4726  144.8782  162.8136 C.3     1  UNL1        0.0666
      3 S         144.3380  143.6701  162.6100 S.3     1  UNL1       -0.0756
      4 C         142.9962  140.2436  163.8449 C.ar    1  UNL1        0.2029
      5 N         143.9966  140.5660  164.9151 N.ar    1  UNL1       -0.1250
      6 N         144.6210  141.8887  164.5828 N.ar    1  UNL1       -0.1220
      7 C         144.0065  142.3840  163.3072 C.ar    1  UNL1        0.1933
      8 N         143.0023  141.3672  162.8511 N.ar    1  UNL1       -0.2860
      9 C         142.1534  141.4582  161.6179 C.3     1  UNL1        0.1341
     10 C         143.0698  137.9773  161.4981 C.3     1  UNL1        0.0556
     11 C         142.1739  137.9720  162.7011 C.ar    1  UNL1        0.1001
     12 N         141.1545  136.9241  163.0366 N.ar    1  UNL1       -0.2085
     13 C         140.4906  137.3181  164.3227 C.ar    1  UNL1        0.2849
     14 O         141.0997  138.6096  164.7820 O.2     1  UNL1       -0.4283
     15 C         142.1400  139.0137  163.7798 C.ar    1  UNL1        0.1964
     16 C         141.0673  144.5278  163.7312 C.3     1  UNL1        0.0730
     17 N         140.4851  143.3612  164.4727 N.3     1  UNL1       -0.2724
     18 C         139.4805  142.4718  163.8020 C.3     1  UNL1        0.0721
     19 C         138.8984  141.3052  164.5436 C.3     1  UNL1        0.0177
     20 C         139.3209  141.0278  165.9560 C.3     1  UNL1        0.0068
     21 C         139.7433  140.7505  167.3682 C.3     1  UNL1        0.0058
     22 C         140.3255  141.9171  166.6267 C.3     1  UNL1        0.0337
     23 C         140.9076  143.0838  165.8850 C.3     1  UNL1        0.0761
     24 C         141.1494  142.2704  167.8293 C.ar    1  UNL1       -0.0215
     25 C         142.5878  141.8513  167.9024 C.ar    1  UNL1       -0.0042
     26 C         143.4117  142.2046  169.1050 C.ar    1  UNL1       -0.0003
     27 C         142.7973  142.9770  170.2345 C.ar    1  UNL1       -0.0000
     28 C         141.3589  143.3961  170.1615 C.ar    1  UNL1       -0.0003
     29 C         140.5349  143.0428  168.9588 C.ar    1  UNL1       -0.0042
@<TRIPOS>BOND
     1    10    11    1
     2    11    12   ar
     3    12    13   ar
     4    13    14   ar
     5    14    15   ar
     6    15     4    1
     7     4     5   ar
     8     5     6   ar
     9     6     7   ar
    10     7     3    1
    11     3     2    1
    12     2     1    1
    13     1    16    1
    14    16    17    1
    15    17    18    1
    16    18    19    1
    17    19    20    1
    18    20    21    1
    19    21    22    1
    20    22    24    1
    21    24    25   ar
    22    25    26   ar
    23    26    27   ar
    24    27    28   ar
    25    28    29   ar
    26    22    23    1
    27     7     8   ar
    28     8     9    1
    29    15    11   ar
    30     8     4   ar
    31    23    17    1
    32    22    20    1
    33    29    24   ar
@<TRIPOS>MOLECULE
*****
 29 33 0 0 0
SMALL
GASTEIGER

@<TRIPOS>ATOM
      1 C         138.3309  139.3585  165.6583 C.3     1  UNL1        0.0294
      2 C         139.0641  138.4797  164.6888 C.3     1  UNL1        0.0666
      3 S         138.9382  138.7219  163.2139 S.3     1  UNL1       -0.0756
      4 C         138.7669  142.4322  162.0867 C.ar    1  UNL1        0.2029
      5 N         137.3801  141.9647  161.7571 N.ar    1  UNL1       -0.1250
      6 N         137.2755  140.5180  162.1392 N.ar    1  UNL1       -0.1220
      7 C         138.5976  140.0913  162.7050 C.ar    1  UNL1        0.1933
      8 N         139.5192  141.2743  162.6725 N.ar    1  UNL1       -0.2860
      9 C         140.9433  141.2956  163.1433 C.3     1  UNL1        0.1341
     10 C         139.3103  144.6662  164.4026 C.3     1  UNL1        0.0556
     11 C         139.5562  144.8415  162.9333 C.ar    1  UNL1        0.1001
     12 N         140.0950  146.0746  162.2705 N.ar    1  UNL1       -0.2085
     13 C         140.1783  145.8097  160.7965 C.ar    1  UNL1        0.2849
     14 O         139.6909  144.4130  160.5482 O.2     1  UNL1       -0.4283
     15 C         139.3064  143.8147  161.8688 C.ar    1  UNL1        0.1964
     16 C         138.5226  139.1704  167.1341 C.3     1  UNL1        0.0730
     17 N         139.5743  139.9559  167.8600 N.3     1  UNL1       -0.2724
     18 C         139.3473  140.3790  169.2811 C.3     1  UNL1        0.0721
     19 C         140.3990  141.1644  170.0069 C.3     1  UNL1        0.0177
     20 C         141.6778  141.5269  169.3116 C.3     1  UNL1        0.0068
     21 C         142.9566  141.8893  168.6163 C.3     1  UNL1        0.0058
     22 C         141.9048  141.1039  167.8905 C.3     1  UNL1        0.0337
     23 C         140.8530  140.3183  167.1647 C.3     1  UNL1        0.0761
     24 C         142.7742  141.0689  166.6686 C.ar    1  UNL1       -0.0215
     25 C         143.0680  139.7615  165.9944 C.ar    1  UNL1       -0.0042
     26 C         143.9374  139.7266  164.7725 C.ar    1  UNL1       -0.0003
     27 C         144.5129  140.9989  164.2249 C.ar    1  UNL1       -0.0000
     28 C         144.2191  142.3062  164.8991 C.ar    1  UNL1       -0.0003
     29 C         143.3497  142.3412  166.1210 C.ar    1  UNL1       -0.0042
@<TRIPOS>BOND
     1    10    11    1
     2    11    12   ar
     3    12    13   ar
     4    13    14   ar
     5    14    15   ar
     6    15     4    1
     7     4     5   ar
     8     5     6   ar
     9     6     7   ar
    10     7     3    1
    11     3     2    1
    12     2     1    1
    13     1    16    1
    14    16    17    1
    15    17    18    1
    16    18    19    1
    17    19    20    1
    18    20    21    1
    19    21    22    1
    20    22    24    1
    21    24    25   ar
    22    25    26   ar
    23    26    27   ar
    24    27    28   ar
    25    28    29   ar
    26    22    23    1
    27     7     8   ar
    28     8     9    1
    29    15    11   ar
    30     8     4   ar
    31    23    17    1
    32    22    20    1
    33    29    24   ar
