@<TRIPOS>MOLECULE
*****
 36 39 0 0 0
SMALL
GASTEIGER

@<TRIPOS>ATOM
      1 C         141.8983  140.4940  166.7503 C.3     1  UNL1        0.0545
      2 C         142.5697  139.1687  166.5434 C.3     1  UNL1        0.0162
      3 C         141.7331  138.3691  165.5892 C.3     1  UNL1        0.0100
      4 C         140.5445  139.2002  165.2063 C.3     1  UNL1        0.0704
      5 C         140.6467  140.5134  165.9238 C.3     1  UNL1        0.0243
      6 C         139.2794  139.7822  164.6490 C.2     1  UNL1        0.2248
      7 O         137.9880  139.6224  165.3951 O.2     1  UNL1       -0.2749
      8 N         139.3056  140.5241  163.3455 N.am    1  UNL1       -0.2760
      9 C         138.0405  141.1062  162.7882 C.3     1  UNL1        0.1149
     10 C         138.0668  141.8480  161.4848 C.3     1  UNL1        0.1137
     11 N         139.3582  142.0078  160.7387 N.pl3   1  UNL1       -0.2897
     12 C         140.6233  141.4257  161.2960 C.3     1  UNL1        0.1137
     13 C         140.5970  140.6839  162.5994 C.3     1  UNL1        0.1149
     14 C         139.3845  142.7497  159.4352 C.ar    1  UNL1        0.1317
     15 C         140.4430  143.7818  159.1810 C.ar    1  UNL1        0.0382
     16 C         140.4693  144.5237  157.8775 C.ar    1  UNL1        0.0757
     17 C         139.4372  144.2334  156.8284 C.ar    1  UNL1        0.0246
     18 C         138.3788  143.2014  157.0827 C.ar    1  UNL1        0.1002
     19 N         138.3525  142.4595  158.3861 N.ar    1  UNL1       -0.2292
     20 C         141.5276  145.5557  157.6232 C.3     1  UNL1        0.4187
     21 F         142.5860  146.5878  157.3689 F       1  UNL1       -0.1659
     22 F         142.5422  144.6820  158.2994 F       1  UNL1       -0.1659
     23 F         140.5131  146.4295  156.9470 F       1  UNL1       -0.1659
     24 C         140.1779  138.0086  164.3722 C.3     1  UNL1        0.0082
     25 C         141.2166  137.3411  163.5204 C.3     1  UNL1        0.0005
     26 C         139.3448  137.5045  164.2290 C.3     1  UNL1        0.0005
     27 N         142.3919  141.6048  167.6292 N.3     1  UNL1       -0.2975
     28 H         143.3741  141.4112  167.8249 H       1  UNL1        0.1232
     29 C         142.0993  141.0443  170.1492 C.3     1  UNL1        0.1591
     30 C         141.4379  141.3059  171.4698 C.3     1  UNL1        0.1729
     31 O         140.4080  142.3896  171.5912 O.3     1  UNL1       -0.3511
     32 C         140.0393  143.2117  170.3920 C.3     1  UNL1        0.1437
     33 C         140.7006  142.9501  169.0714 C.3     1  UNL1        0.0503
     34 C         141.7306  141.8664  168.9499 C.3     1  UNL1        0.0865
     35 C         142.7391  138.5279  170.2401 C.3     1  UNL1        0.1742
     36 O         143.1292  139.9606  170.0277 O.3     1  UNL1       -0.3496
@<TRIPOS>BOND
     1    35    36    1
     2    29    36    1
     3    29    30    1
     4    30    31    1
     5    31    32    1
     6    32    33    1
     7    33    34    1
     8    34    27    1
     9     1    27    1
    10     1     2    1
    11     2     3    1
    12     3     4    1
    13     4     6    1
    14     6     7    2
    15     6     8   am
    16     8     9    1
    17     9    10    1
    18    10    11    1
    19    11    14    1
    20    14    15   ar
    21    15    16   ar
    22    16    20    1
    23    20    21    1
    24    20    22    1
    25    20    23    1
    26    16    17   ar
    27    17    18   ar
    28    18    19   ar
    29    11    12    1
    30    12    13    1
    31     4    24    1
    32    24    25    1
    33    24    26    1
    34     4     5    1
    35    34    29    1
    36     5     1    1
    37    13     8    1
    38    19    14   ar
    39    27    28    1
@<TRIPOS>MOLECULE
*****
 36 39 0 0 0
SMALL
GASTEIGER

@<TRIPOS>ATOM
      1 C         140.8459  141.5586  160.0660 C.3     1  UNL1        0.0545
      2 C         142.2181  141.3546  159.4956 C.3     1  UNL1        0.0162
      3 C         142.7729  140.0830  160.0660 C.3     1  UNL1        0.0100
      4 C         141.7435  139.5011  160.9889 C.3     1  UNL1        0.0704
      5 C         140.5526  140.4131  160.9889 C.3     1  UNL1        0.0243
      6 C         140.9274  138.6933  161.9539 C.2     1  UNL1        0.2248
      7 O         140.2497  137.4365  161.4946 O.2     1  UNL1       -0.2749
      8 N         140.7889  139.1424  163.3785 N.am    1  UNL1       -0.2760
      9 C         139.9728  138.3346  164.3436 C.3     1  UNL1        0.1149
     10 C         139.8344  138.7838  165.7681 C.3     1  UNL1        0.1137
     11 N         140.5121  140.0406  166.2274 N.pl3   1  UNL1       -0.2897
     12 C         141.3282  140.8484  165.2623 C.3     1  UNL1        0.1137
     13 C         141.4666  140.3992  163.8378 C.3     1  UNL1        0.1149
     14 C         140.3737  140.4898  167.6519 C.ar    1  UNL1        0.1317
     15 C         141.3498  141.4734  168.2263 C.ar    1  UNL1        0.0382
     16 C         141.2114  141.9225  169.6508 C.ar    1  UNL1        0.0757
     17 C         140.0970  141.3881  170.5008 C.ar    1  UNL1        0.0246
     18 C         139.1210  140.4045  169.9264 C.ar    1  UNL1        0.1002
     19 N         139.2594  139.9554  168.5019 N.ar    1  UNL1       -0.2292
     20 C         142.1873  142.9061  170.2253 C.3     1  UNL1        0.4187
     21 F         143.1633  143.8897  170.7998 F       1  UNL1       -0.1659
     22 F         143.1890  141.8048  170.4091 F       1  UNL1       -0.1659
     23 F         141.1856  144.0074  170.0415 F       1  UNL1       -0.1659
     24 C         142.7638  138.4203  161.1906 C.3     1  UNL1        0.0082
     25 C         143.0349  137.4310  160.0962 C.3     1  UNL1        0.0005
     26 C         143.3592  138.1723  161.9340 C.3     1  UNL1        0.0005
     27 N         139.9282  142.7066  159.7661 N.3     1  UNL1       -0.2975
     28 H         140.3505  143.2284  158.9981 H       1  UNL1        0.1232
     29 C         138.4864  143.4257  161.8044 C.3     1  UNL1        0.1591
     30 C         138.1575  144.4226  162.8758 C.3     1  UNL1        0.1729
     31 O         138.9413  145.6972  162.9805 O.3     1  UNL1       -0.3511
     32 C         140.0541  145.9749  162.0138 C.3     1  UNL1        0.1437
     33 C         140.3830  144.9781  160.9424 C.3     1  UNL1        0.0503
     34 C         139.5992  143.7035  160.8377 C.3     1  UNL1        0.0865
     35 C         137.4476  141.3246  162.9251 C.3     1  UNL1        0.1742
     36 O         137.7026  142.1511  161.6996 O.3     1  UNL1       -0.3496
@<TRIPOS>BOND
     1    35    36    1
     2    29    36    1
     3    29    30    1
     4    30    31    1
     5    31    32    1
     6    32    33    1
     7    33    34    1
     8    34    27    1
     9     1    27    1
    10     1     2    1
    11     2     3    1
    12     3     4    1
    13     4     6    1
    14     6     7    2
    15     6     8   am
    16     8     9    1
    17     9    10    1
    18    10    11    1
    19    11    14    1
    20    14    15   ar
    21    15    16   ar
    22    16    20    1
    23    20    21    1
    24    20    22    1
    25    20    23    1
    26    16    17   ar
    27    17    18   ar
    28    18    19   ar
    29    11    12    1
    30    12    13    1
    31     4    24    1
    32    24    25    1
    33    24    26    1
    34     4     5    1
    35    34    29    1
    36     5     1    1
    37    13     8    1
    38    19    14   ar
    39    27    28    1
@<TRIPOS>MOLECULE
*****
 36 39 0 0 0
SMALL
GASTEIGER

@<TRIPOS>ATOM
      1 C         139.5709  140.8266  160.2224 C.3     1  UNL1        0.0545
      2 C         139.3867  139.5063  159.5348 C.3     1  UNL1        0.0162
      3 C         140.5969  138.6652  159.8142 C.3     1  UNL1        0.0100
      4 C         141.5291  139.4658  160.6745 C.3     1  UNL1        0.0704
      5 C         140.8950  140.8015  160.9268 C.3     1  UNL1        0.0243
      6 C         142.6425  140.0109  161.5190 C.2     1  UNL1        0.2248
      7 O         143.9066  140.4944  160.8724 O.2     1  UNL1       -0.2749
      8 N         142.4917  140.0725  163.0101 N.am    1  UNL1       -0.2760
      9 C         143.6051  140.6177  163.8547 C.3     1  UNL1        0.1149
     10 C         143.4542  140.6793  165.3458 C.3     1  UNL1        0.1137
     11 N         142.1901  140.1957  165.9924 N.pl3   1  UNL1       -0.2897
     12 C         141.0767  139.6506  165.1478 C.3     1  UNL1        0.1137
     13 C         141.2276  139.5890  163.6567 C.3     1  UNL1        0.1149
     14 C         142.0392  140.2574  167.4835 C.ar    1  UNL1        0.1317
     15 C         141.1997  141.3319  168.1086 C.ar    1  UNL1        0.0382
     16 C         141.0488  141.3935  169.5997 C.ar    1  UNL1        0.0757
     17 C         141.7375  140.3807  170.4657 C.ar    1  UNL1        0.0246
     18 C         142.5770  139.3062  169.8406 C.ar    1  UNL1        0.1002
     19 N         142.7278  139.2446  168.3495 N.ar    1  UNL1       -0.2292
     20 C         140.2094  142.4679  170.2249 C.3     1  UNL1        0.4187
     21 F         139.3699  143.5424  170.8500 F       1  UNL1       -0.1659
     22 F         141.3935  143.3887  170.2325 F       1  UNL1       -0.1659
     23 F         139.0252  141.5472  170.2173 F       1  UNL1       -0.1659
     24 C         142.3959  138.2440  160.5987 C.3     1  UNL1        0.0082
     25 C         142.8858  137.7532  159.2686 C.3     1  UNL1        0.0005
     26 C         142.7602  137.6215  161.2684 C.3     1  UNL1        0.0005
     27 N         138.6013  141.9710  160.2082 N.3     1  UNL1       -0.2975
     28 H         138.5869  142.3329  159.2546 H       1  UNL1        0.1232
     29 C         138.0589  143.2464  162.4057 C.3     1  UNL1        0.1591
     30 C         138.2733  144.4223  163.3119 C.3     1  UNL1        0.1729
     31 O         139.2444  145.4987  162.9269 O.3     1  UNL1       -0.3511
     32 C         140.0012  145.3992  161.6357 C.3     1  UNL1        0.1437
     33 C         139.7868  144.2233  160.7295 C.3     1  UNL1        0.0503
     34 C         138.8157  143.1469  161.1145 C.3     1  UNL1        0.0865
     35 C         137.5830  140.9066  163.4297 C.3     1  UNL1        0.1742
     36 O         137.0877  142.1700  162.7907 O.3     1  UNL1       -0.3496
@<TRIPOS>BOND
     1    35    36    1
     2    29    36    1
     3    29    30    1
     4    30    31    1
     5    31    32    1
     6    32    33    1
     7    33    34    1
     8    34    27    1
     9     1    27    1
    10     1     2    1
    11     2     3    1
    12     3     4    1
    13     4     6    1
    14     6     7    2
    15     6     8   am
    16     8     9    1
    17     9    10    1
    18    10    11    1
    19    11    14    1
    20    14    15   ar
    21    15    16   ar
    22    16    20    1
    23    20    21    1
    24    20    22    1
    25    20    23    1
    26    16    17   ar
    27    17    18   ar
    28    18    19   ar
    29    11    12    1
    30    12    13    1
    31     4    24    1
    32    24    25    1
    33    24    26    1
    34     4     5    1
    35    34    29    1
    36     5     1    1
    37    13     8    1
    38    19    14   ar
    39    27    28    1
@<TRIPOS>MOLECULE
*****
 36 39 0 0 0
SMALL
GASTEIGER

@<TRIPOS>ATOM
      1 C         138.1498  142.3801  163.3546 C.3     1  UNL1        0.0545
      2 C         137.5979  143.7741  163.3075 C.3     1  UNL1        0.0162
      3 C         138.7499  144.7243  163.1660 C.3     1  UNL1        0.0100
      4 C         140.0139  143.9175  163.1257 C.3     1  UNL1        0.0704
      5 C         139.6430  142.4688  163.2423 C.3     1  UNL1        0.0243
      6 C         141.4166  143.3906  163.0581 C.2     1  UNL1        0.2248
      7 O         142.1567  143.0635  164.3211 O.2     1  UNL1       -0.2749
      8 N         142.0794  143.1907  161.7273 N.am    1  UNL1       -0.2760
      9 C         143.4821  142.6638  161.6596 C.3     1  UNL1        0.1149
     10 C         144.1448  142.4640  160.3288 C.3     1  UNL1        0.1137
     11 N         143.4047  142.7911  159.0658 N.pl3   1  UNL1       -0.2897
     12 C         142.0020  143.3180  159.1335 C.3     1  UNL1        0.1137
     13 C         141.3393  143.5178  160.4643 C.3     1  UNL1        0.1149
     14 C         144.0674  142.5912  157.7350 C.ar    1  UNL1        0.1317
     15 C         145.5602  142.4701  157.6513 C.ar    1  UNL1        0.0382
     16 C         146.2229  142.2703  156.3205 C.ar    1  UNL1        0.0757
     17 C         145.3928  142.1916  155.0736 C.ar    1  UNL1        0.0246
     18 C         143.9001  142.3127  155.1573 C.ar    1  UNL1        0.1002
     19 N         143.2374  142.5125  156.4881 N.ar    1  UNL1       -0.2292
     20 C         147.7156  142.1492  156.2366 C.3     1  UNL1        0.4187
     21 F         149.2084  142.0281  156.1528 F       1  UNL1       -0.1659
     22 F         147.8472  142.8605  157.5507 F       1  UNL1       -0.1659
     23 F         147.5841  141.4380  154.9226 F       1  UNL1       -0.1659
     24 C         140.6780  145.2561  162.9950 C.3     1  UNL1        0.0082
     25 C         140.1260  146.2777  162.0454 C.3     1  UNL1        0.0005
     26 C         141.4625  145.6742  163.4173 C.3     1  UNL1        0.0005
     27 N         137.3492  141.1190  163.4903 N.3     1  UNL1       -0.2975
     28 H         136.5729  141.3291  164.1177 H       1  UNL1        0.1232
     29 C         138.5553  138.8606  163.0487 C.3     1  UNL1        0.1591
     30 C         139.2051  137.6119  163.5668 C.3     1  UNL1        0.1729
     31 O         139.2984  137.3727  165.0447 O.3     1  UNL1       -0.3511
     32 C         138.7420  138.3823  166.0044 C.3     1  UNL1        0.1437
     33 C         138.0923  139.6310  165.4863 C.3     1  UNL1        0.0503
     34 C         137.9989  139.8702  164.0084 C.3     1  UNL1        0.0865
     35 C         139.2465  138.2435  160.6215 C.3     1  UNL1        0.1742
     36 O         138.4620  139.0997  161.5708 O.3     1  UNL1       -0.3496
@<TRIPOS>BOND
     1    35    36    1
     2    29    36    1
     3    29    30    1
     4    30    31    1
     5    31    32    1
     6    32    33    1
     7    33    34    1
     8    34    27    1
     9     1    27    1
    10     1     2    1
    11     2     3    1
    12     3     4    1
    13     4     6    1
    14     6     7    2
    15     6     8   am
    16     8     9    1
    17     9    10    1
    18    10    11    1
    19    11    14    1
    20    14    15   ar
    21    15    16   ar
    22    16    20    1
    23    20    21    1
    24    20    22    1
    25    20    23    1
    26    16    17   ar
    27    17    18   ar
    28    18    19   ar
    29    11    12    1
    30    12    13    1
    31     4    24    1
    32    24    25    1
    33    24    26    1
    34     4     5    1
    35    34    29    1
    36     5     1    1
    37    13     8    1
    38    19    14   ar
    39    27    28    1
@<TRIPOS>MOLECULE
*****
 36 39 0 0 0
SMALL
GASTEIGER

@<TRIPOS>ATOM
      1 C         139.8002  141.0396  160.3474 C.3     1  UNL1        0.0545
      2 C         138.8768  142.0289  159.7005 C.3     1  UNL1        0.0162
      3 C         139.4525  143.3996  159.8998 C.3     1  UNL1        0.0100
      4 C         140.7318  143.2575  160.6700 C.3     1  UNL1        0.0704
      5 C         140.9467  141.7990  160.9466 C.3     1  UNL1        0.0243
      6 C         142.0226  143.4277  161.4149 C.2     1  UNL1        0.2248
      7 O         143.2477  143.9052  160.6931 O.2     1  UNL1       -0.2749
      8 N         142.0883  143.1202  162.8816 N.am    1  UNL1       -0.2760
      9 C         143.3790  143.2904  163.6266 C.3     1  UNL1        0.1149
     10 C         143.4446  142.9830  165.0933 C.3     1  UNL1        0.1137
     11 N         142.2195  142.5054  165.8150 N.pl3   1  UNL1       -0.2897
     12 C         140.9287  142.3353  165.0700 C.3     1  UNL1        0.1137
     13 C         140.8631  142.6427  163.6033 C.3     1  UNL1        0.1149
     14 C         142.2851  142.1980  167.2817 C.ar    1  UNL1        0.1317
     15 C         141.1460  141.4870  167.9506 C.ar    1  UNL1        0.0382
     16 C         141.2116  141.1796  169.4173 C.ar    1  UNL1        0.0757
     17 C         142.4161  141.5831  170.2150 C.ar    1  UNL1        0.0246
     18 C         143.5551  142.2940  169.5462 C.ar    1  UNL1        0.1002
     19 N         143.4895  142.6014  168.0795 N.ar    1  UNL1       -0.2292
     20 C         140.0727  140.4687  170.0862 C.3     1  UNL1        0.4187
     21 F         138.9338  139.7578  170.7552 F       1  UNL1       -0.1659
     22 F         139.5769  140.0046  168.7488 F       1  UNL1       -0.1659
     23 F         140.5686  140.9329  171.4237 F       1  UNL1       -0.1659
     24 C         140.7867  144.7515  160.5491 C.3     1  UNL1        0.0082
     25 C         140.3038  145.6136  161.6777 C.3     1  UNL1        0.0005
     26 C         141.0899  145.3699  159.8460 C.3     1  UNL1        0.0005
     27 N         139.6106  139.5522  160.3880 N.3     1  UNL1       -0.2975
     28 H         138.6693  139.3659  160.0420 H       1  UNL1        0.1232
     29 C         138.6981  138.9585  162.7470 C.3     1  UNL1        0.1591
     30 C         138.8364  138.2199  164.0452 C.3     1  UNL1        0.1729
     31 O         140.0252  137.3366  164.2827 O.3     1  UNL1       -0.3511
     32 C         141.0758  137.1919  163.2220 C.3     1  UNL1        0.1437
     33 C         140.9376  137.9304  161.9238 C.3     1  UNL1        0.0503
     34 C         139.7488  138.8137  161.6863 C.3     1  UNL1        0.0865
     35 C         137.4477  141.2018  163.1390 C.3     1  UNL1        0.1742
     36 O         137.5093  139.8418  162.5095 O.3     1  UNL1       -0.3496
@<TRIPOS>BOND
     1    35    36    1
     2    29    36    1
     3    29    30    1
     4    30    31    1
     5    31    32    1
     6    32    33    1
     7    33    34    1
     8    34    27    1
     9     1    27    1
    10     1     2    1
    11     2     3    1
    12     3     4    1
    13     4     6    1
    14     6     7    2
    15     6     8   am
    16     8     9    1
    17     9    10    1
    18    10    11    1
    19    11    14    1
    20    14    15   ar
    21    15    16   ar
    22    16    20    1
    23    20    21    1
    24    20    22    1
    25    20    23    1
    26    16    17   ar
    27    17    18   ar
    28    18    19   ar
    29    11    12    1
    30    12    13    1
    31     4    24    1
    32    24    25    1
    33    24    26    1
    34     4     5    1
    35    34    29    1
    36     5     1    1
    37    13     8    1
    38    19    14   ar
    39    27    28    1
@<TRIPOS>MOLECULE
*****
 36 39 0 0 0
SMALL
GASTEIGER

@<TRIPOS>ATOM
      1 C         139.7437  141.0189  160.3950 C.3     1  UNL1        0.0545
      2 C         138.7630  141.9989  159.8225 C.3     1  UNL1        0.0162
      3 C         139.2845  143.3814  160.0809 C.3     1  UNL1        0.0100
      4 C         140.5876  143.2558  160.8131 C.3     1  UNL1        0.0704
      5 C         140.8714  141.7958  161.0073 C.3     1  UNL1        0.0243
      6 C         141.8882  143.4437  161.5364 C.2     1  UNL1        0.2248
      7 O         143.0921  143.9468  160.7965 O.2     1  UNL1       -0.2749
      8 N         141.9850  143.1284  162.9997 N.am    1  UNL1       -0.2760
      9 C         143.2855  143.3162  163.7231 C.3     1  UNL1        0.1149
     10 C         143.3822  143.0008  165.1864 C.3     1  UNL1        0.1137
     11 N         142.1783  142.4977  165.9263 N.pl3   1  UNL1       -0.2897
     12 C         140.8778  142.3098  165.2030 C.3     1  UNL1        0.1137
     13 C         140.7811  142.6252  163.7397 C.3     1  UNL1        0.1149
     14 C         142.2750  142.1823  167.3896 C.ar    1  UNL1        0.1317
     15 C         141.1551  141.4580  168.0763 C.ar    1  UNL1        0.0382
     16 C         141.2518  141.1427  169.5396 C.ar    1  UNL1        0.0757
     17 C         142.4682  141.5516  170.3161 C.ar    1  UNL1        0.0246
     18 C         143.5880  142.2758  169.6295 C.ar    1  UNL1        0.1002
     19 N         143.4913  142.5912  168.1662 N.ar    1  UNL1       -0.2292
     20 C         140.1320  140.4184  170.2263 C.3     1  UNL1        0.4187
     21 F         139.0123  139.6942  170.9130 F       1  UNL1       -0.1659
     22 F         141.0093  139.2121  170.3846 F       1  UNL1       -0.1659
     23 F         139.2547  141.6248  170.0680 F       1  UNL1       -0.1659
     24 C         140.5757  144.7551  160.7702 C.3     1  UNL1        0.0082
     25 C         140.7595  145.4696  159.4641 C.3     1  UNL1        0.0005
     26 C         140.4669  145.4578  161.4507 C.3     1  UNL1        0.0005
     27 N         139.6187  139.5245  160.3613 N.3     1  UNL1       -0.2975
     28 H         138.6734  139.3153  160.0403 H       1  UNL1        0.1232
     29 C         141.1893  138.1401  161.8997 C.3     1  UNL1        0.1591
     30 C         141.4090  137.3407  163.1497 C.3     1  UNL1        0.1729
     31 O         140.2780  137.1263  164.1114 O.3     1  UNL1       -0.3511
     32 C         138.9273  137.7113  163.8231 C.3     1  UNL1        0.1437
     33 C         138.7075  138.5107  162.5731 C.3     1  UNL1        0.0503
     34 C         139.8385  138.7251  161.6114 C.3     1  UNL1        0.0865
     35 C         143.6835  137.8125  161.2506 C.3     1  UNL1        0.1742
     36 O         142.3203  138.3544  160.9380 O.3     1  UNL1       -0.3496
@<TRIPOS>BOND
     1    35    36    1
     2    29    36    1
     3    29    30    1
     4    30    31    1
     5    31    32    1
     6    32    33    1
     7    33    34    1
     8    34    27    1
     9     1    27    1
    10     1     2    1
    11     2     3    1
    12     3     4    1
    13     4     6    1
    14     6     7    2
    15     6     8   am
    16     8     9    1
    17     9    10    1
    18    10    11    1
    19    11    14    1
    20    14    15   ar
    21    15    16   ar
    22    16    20    1
    23    20    21    1
    24    20    22    1
    25    20    23    1
    26    16    17   ar
    27    17    18   ar
    28    18    19   ar
    29    11    12    1
    30    12    13    1
    31     4    24    1
    32    24    25    1
    33    24    26    1
    34     4     5    1
    35    34    29    1
    36     5     1    1
    37    13     8    1
    38    19    14   ar
    39    27    28    1
@<TRIPOS>MOLECULE
*****
 36 39 0 0 0
SMALL
GASTEIGER

@<TRIPOS>ATOM
      1 C         141.5252  141.7690  164.4850 C.3     1  UNL1        0.0545
      2 C         141.9463  140.9291  165.6542 C.3     1  UNL1        0.0162
      3 C         141.4342  139.5366  165.4330 C.3     1  UNL1        0.0100
      4 C         140.6966  139.5160  164.1271 C.3     1  UNL1        0.0704
      5 C         140.7528  140.8957  163.5412 C.3     1  UNL1        0.0243
      6 C         139.9129  139.1929  162.8895 C.2     1  UNL1        0.2248
      7 O         138.4135  139.2171  162.9235 O.2     1  UNL1       -0.2749
      8 N         140.6287  138.8457  161.6179 N.am    1  UNL1       -0.2760
      9 C         139.8452  138.5226  160.3803 C.3     1  UNL1        0.1149
     10 C         140.5611  138.1753  159.1087 C.3     1  UNL1        0.1137
     11 N         142.0605  138.1511  159.0747 N.pl3   1  UNL1       -0.2897
     12 C         142.8440  138.4742  160.3123 C.3     1  UNL1        0.1137
     13 C         142.1282  138.8215  161.5839 C.3     1  UNL1        0.1149
     14 C         142.7763  137.8038  157.8031 C.ar    1  UNL1        0.1317
     15 C         142.8695  136.3732  157.3616 C.ar    1  UNL1        0.0382
     16 C         143.5854  136.0259  156.0900 C.ar    1  UNL1        0.0757
     17 C         144.2080  137.1092  155.2600 C.ar    1  UNL1        0.0246
     18 C         144.1148  138.5397  155.7014 C.ar    1  UNL1        0.1002
     19 N         143.3989  138.8869  156.9730 N.ar    1  UNL1       -0.2292
     20 C         143.6787  134.5955  155.6485 C.3     1  UNL1        0.4187
     21 F         143.7719  133.1650  155.2069 F       1  UNL1       -0.1659
     22 F         143.2561  134.9947  154.2657 F       1  UNL1       -0.1659
     23 F         144.1012  134.1962  157.0312 F       1  UNL1       -0.1659
     24 C         140.4766  138.0689  164.4542 C.3     1  UNL1        0.0082
     25 C         139.1920  137.6312  165.0933 C.3     1  UNL1        0.0005
     26 C         141.0164  137.2533  164.3443 C.3     1  UNL1        0.0005
     27 N         141.8239  143.2264  164.2932 N.3     1  UNL1       -0.2975
     28 H         141.7853  143.6588  165.2162 H       1  UNL1        0.1232
     29 C         141.5329  144.6354  162.1298 C.3     1  UNL1        0.1591
     30 C         140.6698  145.4654  161.2264 C.3     1  UNL1        0.1729
     31 O         139.2346  145.7164  161.5830 O.3     1  UNL1       -0.3511
     32 C         138.6625  145.1374  162.8429 C.3     1  UNL1        0.1437
     33 C         139.5256  144.3074  163.7463 C.3     1  UNL1        0.0503
     34 C         140.9608  144.0564  163.3897 C.3     1  UNL1        0.0865
     35 C         143.3433  143.1629  160.9878 C.3     1  UNL1        0.1742
     36 O         142.9682  144.3844  161.7733 O.3     1  UNL1       -0.3496
@<TRIPOS>BOND
     1    35    36    1
     2    29    36    1
     3    29    30    1
     4    30    31    1
     5    31    32    1
     6    32    33    1
     7    33    34    1
     8    34    27    1
     9     1    27    1
    10     1     2    1
    11     2     3    1
    12     3     4    1
    13     4     6    1
    14     6     7    2
    15     6     8   am
    16     8     9    1
    17     9    10    1
    18    10    11    1
    19    11    14    1
    20    14    15   ar
    21    15    16   ar
    22    16    20    1
    23    20    21    1
    24    20    22    1
    25    20    23    1
    26    16    17   ar
    27    17    18   ar
    28    18    19   ar
    29    11    12    1
    30    12    13    1
    31     4    24    1
    32    24    25    1
    33    24    26    1
    34     4     5    1
    35    34    29    1
    36     5     1    1
    37    13     8    1
    38    19    14   ar
    39    27    28    1
@<TRIPOS>MOLECULE
*****
 36 39 0 0 0
SMALL
GASTEIGER

@<TRIPOS>ATOM
      1 C         142.8496  140.1316  164.9866 C.3     1  UNL1        0.0545
      2 C         142.9019  138.6395  165.1306 C.3     1  UNL1        0.0162
      3 C         141.5155  138.1050  164.9249 C.3     1  UNL1        0.0100
      4 C         140.6063  139.2669  164.6539 C.3     1  UNL1        0.0704
      5 C         141.4308  140.5194  164.6919 C.3     1  UNL1        0.0243
      6 C         139.4754  140.2081  164.3621 C.2     1  UNL1        0.2248
      7 O         138.4641  140.5180  165.4256 O.2     1  UNL1       -0.2749
      8 N         139.3558  140.8394  163.0066 N.am    1  UNL1       -0.2760
      9 C         138.2249  141.7806  162.7147 C.3     1  UNL1        0.1149
     10 C         138.1053  142.4119  161.3593 C.3     1  UNL1        0.1137
     11 N         139.1166  142.1020  160.2957 N.pl3   1  UNL1       -0.2897
     12 C         140.2475  141.1607  160.5876 C.3     1  UNL1        0.1137
     13 C         140.3671  140.5295  161.9431 C.3     1  UNL1        0.1149
     14 C         138.9971  142.7332  158.9403 C.ar    1  UNL1        0.1317
     15 C         137.9064  142.3013  158.0054 C.ar    1  UNL1        0.0382
     16 C         137.7868  142.9325  156.6500 C.ar    1  UNL1        0.0757
     17 C         138.7578  143.9957  156.2294 C.ar    1  UNL1        0.0246
     18 C         139.8485  144.4276  157.1643 C.ar    1  UNL1        0.1002
     19 N         139.9680  143.7963  158.5197 N.ar    1  UNL1       -0.2292
     20 C         136.6962  142.5007  155.7151 C.3     1  UNL1        0.4187
     21 F         135.6056  142.0689  154.7802 F       1  UNL1       -0.1659
     22 F         136.4289  143.9345  155.3646 F       1  UNL1       -0.1659
     23 F         136.9635  141.0669  156.0655 F       1  UNL1       -0.1659
     24 C         139.5454  138.2112  164.5548 C.3     1  UNL1        0.0082
     25 C         139.2548  137.5615  163.2344 C.3     1  UNL1        0.0005
     26 C         138.9311  137.7964  165.2022 C.3     1  UNL1        0.0005
     27 N         144.0119  141.0711  165.1147 N.3     1  UNL1       -0.2975
     28 H         144.0088  141.4141  166.0753 H       1  UNL1        0.1232
     29 C         144.6163  142.1339  162.8222 C.3     1  UNL1        0.1591
     30 C         144.7089  143.3381  161.9328 C.3     1  UNL1        0.1729
     31 O         144.2898  144.6837  162.4461 O.3     1  UNL1       -0.3511
     32 C         143.7780  144.8252  163.8490 C.3     1  UNL1        0.1437
     33 C         143.6854  143.6210  164.7385 C.3     1  UNL1        0.0503
     34 C         144.1046  142.2753  164.2251 C.3     1  UNL1        0.0865
     35 C         144.1174  140.0066  161.4166 C.3     1  UNL1        0.1742
     36 O         145.0354  140.7882  162.3089 O.3     1  UNL1       -0.3496
@<TRIPOS>BOND
     1    35    36    1
     2    29    36    1
     3    29    30    1
     4    30    31    1
     5    31    32    1
     6    32    33    1
     7    33    34    1
     8    34    27    1
     9     1    27    1
    10     1     2    1
    11     2     3    1
    12     3     4    1
    13     4     6    1
    14     6     7    2
    15     6     8   am
    16     8     9    1
    17     9    10    1
    18    10    11    1
    19    11    14    1
    20    14    15   ar
    21    15    16   ar
    22    16    20    1
    23    20    21    1
    24    20    22    1
    25    20    23    1
    26    16    17   ar
    27    17    18   ar
    28    18    19   ar
    29    11    12    1
    30    12    13    1
    31     4    24    1
    32    24    25    1
    33    24    26    1
    34     4     5    1
    35    34    29    1
    36     5     1    1
    37    13     8    1
    38    19    14   ar
    39    27    28    1
@<TRIPOS>MOLECULE
*****
 36 39 0 0 0
SMALL
GASTEIGER

@<TRIPOS>ATOM
      1 C         142.4818  140.5769  165.4733 C.3     1  UNL1        0.0545
      2 C         141.5311  140.6584  166.6306 C.3     1  UNL1        0.0162
      3 C         140.3577  139.7737  166.3298 C.3     1  UNL1        0.0100
      4 C         140.5833  139.1454  164.9866 C.3     1  UNL1        0.0704
      5 C         141.8960  139.6419  164.4572 C.3     1  UNL1        0.0243
      6 C         140.5321  138.3800  163.6976 C.2     1  UNL1        0.2248
      7 O         141.0268  136.9648  163.6455 O.2     1  UNL1       -0.2749
      8 N         139.9864  139.0297  162.4606 N.am    1  UNL1       -0.2760
      9 C         139.9352  138.2643  161.1716 C.3     1  UNL1        0.1149
     10 C         139.3894  138.9140  159.9347 C.3     1  UNL1        0.1137
     11 N         138.8948  140.3292  159.9868 N.pl3   1  UNL1       -0.2897
     12 C         138.9460  141.0945  161.2758 C.3     1  UNL1        0.1137
     13 C         139.4917  140.4448  162.5127 C.3     1  UNL1        0.1149
     14 C         138.3490  140.9789  158.7499 C.ar    1  UNL1        0.1317
     15 C         138.9597  142.2502  158.2388 C.ar    1  UNL1        0.0382
     16 C         138.4139  142.8999  157.0018 C.ar    1  UNL1        0.0757
     17 C         137.2576  142.2785  156.2761 C.ar    1  UNL1        0.0246
     18 C         136.6470  141.0073  156.7872 C.ar    1  UNL1        0.1002
     19 N         137.1928  140.3575  158.0241 N.ar    1  UNL1       -0.2292
     20 C         139.0244  144.1711  156.4907 C.3     1  UNL1        0.4187
     21 F         139.6349  145.4423  155.9795 F       1  UNL1       -0.1659
     22 F         140.2829  143.8721  157.2502 F       1  UNL1       -0.1659
     23 F         137.7660  144.4701  155.7312 F       1  UNL1       -0.1659
     24 C         139.2599  138.4890  165.2465 C.3     1  UNL1        0.0082
     25 C         138.1156  139.2954  165.7855 C.3     1  UNL1        0.0005
     26 C         138.9195  137.5714  165.1420 C.3     1  UNL1        0.0005
     27 N         143.7889  141.3030  165.3531 N.3     1  UNL1       -0.2975
     28 H         143.9917  141.6983  166.2713 H       1  UNL1        0.1232
     29 C         144.5029  142.1358  162.9979 C.3     1  UNL1        0.1591
     30 C         144.6536  143.2493  162.0043 C.3     1  UNL1        0.1729
     31 O         144.2410  144.6437  162.3723 O.3     1  UNL1       -0.3511
     32 C         143.6777  144.9246  163.7338 C.3     1  UNL1        0.1437
     33 C         143.5270  143.8110  164.7274 C.3     1  UNL1        0.0503
     34 C         143.9396  142.4166  164.3594 C.3     1  UNL1        0.0865
     35 C         144.1935  140.0090  161.5381 C.3     1  UNL1        0.1742
     36 O         144.9155  140.7413  162.6300 O.3     1  UNL1       -0.3496
@<TRIPOS>BOND
     1    35    36    1
     2    29    36    1
     3    29    30    1
     4    30    31    1
     5    31    32    1
     6    32    33    1
     7    33    34    1
     8    34    27    1
     9     1    27    1
    10     1     2    1
    11     2     3    1
    12     3     4    1
    13     4     6    1
    14     6     7    2
    15     6     8   am
    16     8     9    1
    17     9    10    1
    18    10    11    1
    19    11    14    1
    20    14    15   ar
    21    15    16   ar
    22    16    20    1
    23    20    21    1
    24    20    22    1
    25    20    23    1
    26    16    17   ar
    27    17    18   ar
    28    18    19   ar
    29    11    12    1
    30    12    13    1
    31     4    24    1
    32    24    25    1
    33    24    26    1
    34     4     5    1
    35    34    29    1
    36     5     1    1
    37    13     8    1
    38    19    14   ar
    39    27    28    1
