@<TRIPOS>MOLECULE
*****
 49 54 0 0 0
SMALL
GASTEIGER

@<TRIPOS>ATOM
      1 N         142.6879  140.5670  156.4973 N.am    1  UNL1       -0.2964
      2 C         143.5663  140.5987  157.7128 C.2     1  UNL1        0.2461
      3 O         145.0265  140.2775  157.5916 O.2     1  UNL1       -0.2701
      4 H         141.7296  140.7778  156.5769 H       1  UNL1        0.1501
      5 C         142.9844  140.9516  159.0496 C.ar    1  UNL1        0.0534
      6 C         141.7264  141.7646  159.1290 C.ar    1  UNL1        0.0060
      7 C         141.1447  142.1175  160.4658 C.ar    1  UNL1        0.0173
      8 C         141.8209  141.6574  161.7231 C.ar    1  UNL1        0.0595
      9 C         143.0789  140.8444  161.6437 C.ar    1  UNL1        0.0134
     10 C         143.6607  140.4915  160.3070 C.ar    1  UNL1        0.0057
     11 C         143.5195  140.5343  163.0436 C.ar    1  UNL1       -0.0032
     12 C         144.7329  139.7419  163.4309 C.3     1  UNL1        0.0326
     13 C         142.5338  141.1556  163.9882 C.ar    1  UNL1        0.0737
     14 N         141.4840  141.8498  163.1722 N.ar    1  UNL1       -0.3281
     15 C         142.5884  141.0937  165.4860 C.ar    1  UNL1        0.0969
     16 C         143.0048  142.3016  166.2719 C.ar    1  UNL1        0.0229
     17 C         143.0594  142.2397  167.7696 C.ar    1  UNL1        0.0328
     18 C         142.6975  140.9699  168.4814 C.ar    1  UNL1        0.1592
     19 F         142.7521  140.9080  169.9792 F       1  UNL1       -0.2025
     20 C         142.2811  139.7621  167.6955 C.ar    1  UNL1        0.1284
     21 N         142.2265  139.8239  166.1978 N.ar    1  UNL1       -0.2400
     22 C         140.3043  142.6038  163.7105 C.3     1  UNL1        0.0855
     23 C         138.9685  141.9299  163.8172 C.3     1  UNL1        0.0226
     24 C         137.7890  142.6840  164.3555 C.3     1  UNL1        0.0019
     25 C         137.9452  144.1121  164.7871 C.3     1  UNL1        0.0001
     26 C         139.2810  144.7860  164.6804 C.3     1  UNL1        0.0019
     27 C         140.4605  144.0319  164.1421 C.3     1  UNL1        0.0226
     28 C         143.2698  140.2141  155.1605 C.3     1  UNL1        0.1261
     29 C         143.6865  141.6417  154.9650 C.3     1  UNL1        0.0270
     30 C         144.2683  141.2888  153.6283 C.3     1  UNL1        0.0043
     31 C         143.8516  139.8612  153.8238 C.3     1  UNL1        0.0270
     32 N         143.7915  137.6746  154.9912 N.am    1  UNL1       -0.2680
     33 C         142.8531  138.7865  155.3560 C.2     1  UNL1        0.2430
     34 O         141.4978  138.4707  155.9162 O.2     1  UNL1       -0.2730
     35 H         144.6810  137.8818  154.6236 H       1  UNL1        0.1563
     36 C         143.3430  134.0905  156.6355 C.ar    1  UNL1        0.2258
     37 N         143.7597  135.5181  156.4400 N.ar    1  UNL1       -0.1966
     38 C         143.3747  136.2469  155.1867 C.ar    1  UNL1        0.1373
     39 C         142.5730  135.5481  154.1290 C.ar    1  UNL1        0.0347
     40 C         142.1562  134.1204  154.3245 C.ar    1  UNL1        0.0075
     41 C         142.5412  133.3916  155.5777 C.ar    1  UNL1        0.0534
     42 C         142.1245  131.9640  155.7733 C.2     1  UNL1        0.0058
     43 C         141.3034  131.2722  154.7258 C.2     1  UNL1        0.0152
     44 C         140.8867  129.8446  154.9213 C.2     1  UNL1        0.0729
     45 O         139.6556  129.3228  154.2414 O.co2   1  UNL1       -0.5446
     46 O         141.7009  128.9388  155.7968 O.co2   1  UNL1       -0.5446
     47 O         143.7280  133.3617  157.8888 O.3     1  UNL1       -0.4602
     48 C         145.0161  131.1066  157.9601 C.3     1  UNL1        0.0512
     49 C         145.0225  132.6066  157.9496 C.3     1  UNL1        0.2072
@<TRIPOS>UNITY_ATOM_ATTR
45 1
charge -1
@<TRIPOS>BOND
     1    48    49    1
     2    49    47    1
     3    47    36    1
     4    36    37   ar
     5    37    38   ar
     6    38    32    1
     7    32    33   am
     8    33    34    2
     9    33    28    1
    10    28     1    1
    11     1     2   am
    12     2     3    2
    13     2     5    1
    14     5     6   ar
    15     6     7   ar
    16     7     8   ar
    17     8     9   ar
    18     9    10   ar
    19     9    11   ar
    20    11    12    1
    21    11    13   ar
    22    13    15    1
    23    15    16   ar
    24    16    17   ar
    25    17    18   ar
    26    18    19    1
    27    18    20   ar
    28    20    21   ar
    29    13    14   ar
    30    14    22    1
    31    22    23    1
    32    23    24    1
    33    24    25    1
    34    25    26    1
    35    26    27    1
    36    28    29    1
    37    29    30    1
    38    30    31    1
    39    38    39   ar
    40    39    40   ar
    41    40    41   ar
    42    41    42    1
    43    42    43    2
    44    43    44    1
    45    44    45   ar
    46    44    46   ar
    47    41    36   ar
    48    31    28    1
    49    10     5   ar
    50    21    15   ar
    51    27    22    1
    52    14     8   ar
    53    32    35    1
    54     1     4    1
@<TRIPOS>MOLECULE
*****
 49 54 0 0 0
SMALL
GASTEIGER

@<TRIPOS>ATOM
      1 N         137.7476  140.2819  156.5891 N.am    1  UNL1       -0.2964
      2 C         137.7703  141.3795  157.6112 C.2     1  UNL1        0.2461
      3 O         137.4481  142.7876  157.2070 O.2     1  UNL1       -0.2701
      4 H         137.9591  139.3577  156.8544 H       1  UNL1        0.1501
      5 C         138.1152  141.0690  159.0377 C.ar    1  UNL1        0.0534
      6 C         137.3987  139.9665  159.7596 C.ar    1  UNL1        0.0060
      7 C         137.7437  139.6561  161.1860 C.ar    1  UNL1        0.0173
      8 C         138.8050  140.4481  161.8904 C.ar    1  UNL1        0.0595
      9 C         139.5215  141.5506  161.1685 C.ar    1  UNL1        0.0134
     10 C         139.1766  141.8610  159.7421 C.ar    1  UNL1        0.0057
     11 C         140.5150  142.1556  162.1154 C.ar    1  UNL1       -0.0032
     12 C         141.4473  143.2900  161.8090 C.3     1  UNL1        0.0326
     13 C         140.4126  141.4271  163.4227 C.ar    1  UNL1        0.0737
     14 N         139.3558  140.3718  163.2836 N.ar    1  UNL1       -0.3281
     15 C         141.2246  141.7052  164.6529 C.ar    1  UNL1        0.0969
     16 C         140.5820  142.3479  165.8462 C.ar    1  UNL1        0.0229
     17 C         141.3938  142.6260  167.0764 C.ar    1  UNL1        0.0328
     18 C         142.8483  142.2613  167.1134 C.ar    1  UNL1        0.1592
     19 F         143.6603  142.5393  168.3437 F       1  UNL1       -0.2025
     20 C         143.4909  141.6185  165.9201 C.ar    1  UNL1        0.1284
     21 N         142.6791  141.3405  164.6899 N.ar    1  UNL1       -0.2400
     22 C         138.9253  139.4092  164.3504 C.3     1  UNL1        0.0855
     23 C         139.2304  137.9474  164.2091 C.3     1  UNL1        0.0226
     24 C         138.7999  136.9848  165.2759 C.3     1  UNL1        0.0019
     25 C         138.0642  137.4840  166.4840 C.3     1  UNL1        0.0001
     26 C         137.7590  138.9459  166.6253 C.3     1  UNL1        0.0019
     27 C         138.1896  139.9084  165.5585 C.3     1  UNL1        0.0226
     28 C         137.4027  140.5924  155.1626 C.3     1  UNL1        0.1261
     29 C         138.8172  141.0259  154.9150 C.3     1  UNL1        0.0270
     30 C         138.4724  141.3364  153.4886 C.3     1  UNL1        0.0043
     31 C         137.0579  140.9029  153.7362 C.3     1  UNL1        0.0270
     32 N         135.0016  141.1213  156.0023 N.am    1  UNL1       -0.2680
     33 C         135.9883  140.1590  155.4102 C.2     1  UNL1        0.2430
     34 O         135.5603  138.7631  155.0657 O.2     1  UNL1       -0.2730
     35 H         135.2825  142.0374  156.2284 H       1  UNL1        0.1563
     36 C         131.0498  140.8828  155.7266 C.ar    1  UNL1        0.2258
     37 N         132.4643  141.3162  155.4791 N.ar    1  UNL1       -0.1966
     38 C         133.5871  140.6877  156.2499 C.ar    1  UNL1        0.1373
     39 C         133.2955  139.6258  157.2682 C.ar    1  UNL1        0.0347
     40 C         131.8810  139.1922  157.5158 C.ar    1  UNL1        0.0075
     41 C         130.7581  139.8207  156.7450 C.ar    1  UNL1        0.0534
     42 C         129.3436  139.3873  156.9925 C.2     1  UNL1        0.0058
     43 C         129.0687  138.1062  157.7228 C.2     1  UNL1        0.0152
     44 C         127.6542  137.6727  157.9703 C.2     1  UNL1        0.0729
     45 O         126.7034  138.5874  158.6841 O.co2   1  UNL1       -0.5446
     46 O         127.1904  136.3245  157.5042 O.co2   1  UNL1       -0.5446
     47 O         129.9269  141.5113  154.9558 O.3     1  UNL1       -0.4602
     48 C         129.5339  144.0769  154.8414 C.3     1  UNL1        0.0512
     49 C         129.2578  142.7475  155.4790 C.3     1  UNL1        0.2072
@<TRIPOS>UNITY_ATOM_ATTR
45 1
charge -1
@<TRIPOS>BOND
     1    48    49    1
     2    49    47    1
     3    47    36    1
     4    36    37   ar
     5    37    38   ar
     6    38    32    1
     7    32    33   am
     8    33    34    2
     9    33    28    1
    10    28     1    1
    11     1     2   am
    12     2     3    2
    13     2     5    1
    14     5     6   ar
    15     6     7   ar
    16     7     8   ar
    17     8     9   ar
    18     9    10   ar
    19     9    11   ar
    20    11    12    1
    21    11    13   ar
    22    13    15    1
    23    15    16   ar
    24    16    17   ar
    25    17    18   ar
    26    18    19    1
    27    18    20   ar
    28    20    21   ar
    29    13    14   ar
    30    14    22    1
    31    22    23    1
    32    23    24    1
    33    24    25    1
    34    25    26    1
    35    26    27    1
    36    28    29    1
    37    29    30    1
    38    30    31    1
    39    38    39   ar
    40    39    40   ar
    41    40    41   ar
    42    41    42    1
    43    42    43    2
    44    43    44    1
    45    44    45   ar
    46    44    46   ar
    47    41    36   ar
    48    31    28    1
    49    10     5   ar
    50    21    15   ar
    51    27    22    1
    52    14     8   ar
    53    32    35    1
    54     1     4    1
@<TRIPOS>MOLECULE
*****
 49 54 0 0 0
SMALL
GASTEIGER

@<TRIPOS>ATOM
      1 N         137.6045  141.3075  155.8080 N.am    1  UNL1       -0.2964
      2 C         138.2867  140.3163  156.7036 C.2     1  UNL1        0.2461
      3 O         138.6466  138.9570  156.1812 O.2     1  UNL1       -0.2701
      4 H         137.3683  142.1996  156.1509 H       1  UNL1        0.1501
      5 C         138.6090  140.6843  158.1216 C.ar    1  UNL1        0.0534
      6 C         138.1093  141.9781  158.6928 C.ar    1  UNL1        0.0060
      7 C         138.4317  142.3461  160.1107 C.ar    1  UNL1        0.0173
      8 C         139.2537  141.4202  160.9575 C.ar    1  UNL1        0.0595
      9 C         139.7534  140.1264  160.3863 C.ar    1  UNL1        0.0134
     10 C         139.4310  139.7584  158.9684 C.ar    1  UNL1        0.0057
     11 C         140.5361  139.4203  161.4534 C.ar    1  UNL1       -0.0032
     12 C         141.2155  138.0902  161.3142 C.3     1  UNL1        0.0326
     13 C         140.5202  140.2777  162.6841 C.ar    1  UNL1        0.0737
     14 N         139.7276  141.5137  162.3777 N.ar    1  UNL1       -0.3281
     15 C         141.1810  139.9555  163.9917 C.ar    1  UNL1        0.0969
     16 C         140.3485  139.7547  165.2232 C.ar    1  UNL1        0.0229
     17 C         141.0091  139.4326  166.5308 C.ar    1  UNL1        0.0328
     18 C         142.5023  139.3113  166.6068 C.ar    1  UNL1        0.1592
     19 F         143.1630  138.9891  167.9144 F       1  UNL1       -0.2025
     20 C         143.3347  139.5121  165.3753 C.ar    1  UNL1        0.1284
     21 N         142.6741  139.8342  164.0677 N.ar    1  UNL1       -0.2400
     22 C         139.4566  142.6447  163.3249 C.3     1  UNL1        0.0855
     23 C         138.0799  142.8373  163.8886 C.3     1  UNL1        0.0226
     24 C         137.8089  143.9683  164.8359 C.3     1  UNL1        0.0019
     25 C         138.9145  144.9067  165.2195 C.3     1  UNL1        0.0001
     26 C         140.2911  144.7141  164.6558 C.3     1  UNL1        0.0019
     27 C         140.5621  143.5831  163.7085 C.3     1  UNL1        0.0226
     28 C         137.2822  140.9395  154.3900 C.3     1  UNL1        0.1261
     29 C         138.6146  141.4694  153.9496 C.3     1  UNL1        0.0270
     30 C         138.2923  141.1014  152.5317 C.3     1  UNL1        0.0043
     31 C         136.9599  140.5715  152.9720 C.3     1  UNL1        0.0270
     32 N         135.0612  141.2459  155.7027 N.am    1  UNL1       -0.2680
     33 C         135.9498  140.4096  154.8303 C.2     1  UNL1        0.2430
     34 O         135.5059  139.0434  154.3982 O.2     1  UNL1       -0.2730
     35 H         135.3525  142.1425  155.9863 H       1  UNL1        0.1563
     36 C         131.1335  140.8139  156.0725 C.ar    1  UNL1        0.2258
     37 N         132.4659  141.3438  155.6322 N.ar    1  UNL1       -0.1966
     38 C         133.7287  140.7159  156.1430 C.ar    1  UNL1        0.1373
     39 C         133.6592  139.5581  157.0941 C.ar    1  UNL1        0.0347
     40 C         132.3267  139.0282  157.5345 C.ar    1  UNL1        0.0075
     41 C         131.0639  139.6561  157.0236 C.ar    1  UNL1        0.0534
     42 C         129.7315  139.1262  157.4639 C.2     1  UNL1        0.0058
     43 C         129.6423  138.2140  158.6513 C.2     1  UNL1        0.0152
     44 C         128.3099  137.6841  159.0916 C.2     1  UNL1        0.0729
     45 O         127.6713  138.2073  160.3441 O.co2   1  UNL1       -0.5446
     46 O         127.6160  136.6310  158.2795 O.co2   1  UNL1       -0.5446
     47 O         129.8706  141.4418  155.5617 O.3     1  UNL1       -0.4602
     48 C         129.1048  143.8970  155.1934 C.3     1  UNL1        0.0512
     49 C         129.9322  142.7177  154.7754 C.3     1  UNL1        0.2072
@<TRIPOS>UNITY_ATOM_ATTR
45 1
charge -1
@<TRIPOS>BOND
     1    48    49    1
     2    49    47    1
     3    47    36    1
     4    36    37   ar
     5    37    38   ar
     6    38    32    1
     7    32    33   am
     8    33    34    2
     9    33    28    1
    10    28     1    1
    11     1     2   am
    12     2     3    2
    13     2     5    1
    14     5     6   ar
    15     6     7   ar
    16     7     8   ar
    17     8     9   ar
    18     9    10   ar
    19     9    11   ar
    20    11    12    1
    21    11    13   ar
    22    13    15    1
    23    15    16   ar
    24    16    17   ar
    25    17    18   ar
    26    18    19    1
    27    18    20   ar
    28    20    21   ar
    29    13    14   ar
    30    14    22    1
    31    22    23    1
    32    23    24    1
    33    24    25    1
    34    25    26    1
    35    26    27    1
    36    28    29    1
    37    29    30    1
    38    30    31    1
    39    38    39   ar
    40    39    40   ar
    41    40    41   ar
    42    41    42    1
    43    42    43    2
    44    43    44    1
    45    44    45   ar
    46    44    46   ar
    47    41    36   ar
    48    31    28    1
    49    10     5   ar
    50    21    15   ar
    51    27    22    1
    52    14     8   ar
    53    32    35    1
    54     1     4    1
@<TRIPOS>MOLECULE
*****
 49 54 0 0 0
SMALL
GASTEIGER

@<TRIPOS>ATOM
      1 N         142.8228  140.2830  157.1716 N.am    1  UNL1       -0.2964
      2 C         143.7099  140.3822  158.3771 C.2     1  UNL1        0.2461
      3 O         145.1757  140.6530  158.2094 O.2     1  UNL1       -0.2701
      4 H         141.8607  140.1052  157.2817 H       1  UNL1        0.1501
      5 C         143.1312  140.2104  159.7503 C.ar    1  UNL1        0.0534
      6 C         141.8261  139.4932  159.9300 C.ar    1  UNL1        0.0060
      7 C         141.2476  139.3215  161.3032 C.ar    1  UNL1        0.0173
      8 C         141.9741  139.8670  162.4967 C.ar    1  UNL1        0.0595
      9 C         143.2792  140.5841  162.3171 C.ar    1  UNL1        0.0134
     10 C         143.8578  140.7558  160.9439 C.ar    1  UNL1        0.0057
     11 C         143.7637  141.0109  163.6710 C.ar    1  UNL1       -0.0032
     12 C         145.0314  141.7597  163.9581 C.3     1  UNL1        0.0326
     13 C         142.7581  140.5575  164.6874 C.ar    1  UNL1        0.0737
     14 N         141.6520  139.8505  163.9617 N.ar    1  UNL1       -0.3281
     15 C         142.8435  140.7733  166.1694 C.ar    1  UNL1        0.0969
     16 C         142.7077  139.6094  167.1058 C.ar    1  UNL1        0.0229
     17 C         142.7932  139.8251  168.5877 C.ar    1  UNL1        0.0328
     18 C         143.0144  141.2048  169.1332 C.ar    1  UNL1        0.1592
     19 F         143.0998  141.4205  170.6152 F       1  UNL1       -0.2025
     20 C         143.1502  142.3687  168.1968 C.ar    1  UNL1        0.1284
     21 N         143.0647  142.1530  166.7149 N.ar    1  UNL1       -0.2400
     22 C         140.4371  139.2351  164.5905 C.3     1  UNL1        0.0855
     23 C         140.2577  137.7460  164.5755 C.3     1  UNL1        0.0226
     24 C         139.0428  137.1307  165.2043 C.3     1  UNL1        0.0019
     25 C         138.0074  138.0044  165.8480 C.3     1  UNL1        0.0001
     26 C         138.1868  139.4936  165.8630 C.3     1  UNL1        0.0019
     27 C         139.4017  140.1089  165.2342 C.3     1  UNL1        0.0226
     28 C         143.4014  140.4548  155.7984 C.3     1  UNL1        0.1261
     29 C         143.3387  141.9449  155.9584 C.3     1  UNL1        0.0270
     30 C         143.9173  142.1167  154.5852 C.3     1  UNL1        0.0043
     31 C         143.9800  140.6266  154.4252 C.3     1  UNL1        0.0270
     32 N         142.1980  138.1618  155.5887 N.am    1  UNL1       -0.2680
     33 C         143.4641  138.9647  155.6384 C.2     1  UNL1        0.2430
     34 O         144.7929  138.2774  155.5281 O.2     1  UNL1       -0.2730
     35 H         141.3259  138.6128  155.6610 H       1  UNL1        0.1563
     36 C         142.6997  134.3171  156.4354 C.ar    1  UNL1        0.2258
     37 N         142.6370  135.8072  156.5954 N.ar    1  UNL1       -0.1966
     38 C         142.2608  136.6716  155.4286 C.ar    1  UNL1        0.1373
     39 C         141.9473  136.0459  154.1019 C.ar    1  UNL1        0.0347
     40 C         142.0101  134.5557  153.9419 C.ar    1  UNL1        0.0075
     41 C         142.3863  133.6913  155.1087 C.ar    1  UNL1        0.0534
     42 C         142.4490  132.2013  154.9487 C.2     1  UNL1        0.0058
     43 C         143.6364  131.5673  154.2866 C.2     1  UNL1        0.0152
     44 C         143.6991  130.0772  154.1266 C.2     1  UNL1        0.0729
     45 O         142.5749  129.3472  153.4533 O.co2   1  UNL1       -0.5446
     46 O         144.8860  129.3171  154.6400 O.co2   1  UNL1       -0.5446
     47 O         143.0759  133.4527  157.6022 O.3     1  UNL1       -0.4602
     48 C         145.1875  131.9931  158.0031 C.3     1  UNL1        0.0512
     49 C         144.5132  133.3330  158.0143 C.3     1  UNL1        0.2072
@<TRIPOS>UNITY_ATOM_ATTR
45 1
charge -1
@<TRIPOS>BOND
     1    48    49    1
     2    49    47    1
     3    47    36    1
     4    36    37   ar
     5    37    38   ar
     6    38    32    1
     7    32    33   am
     8    33    34    2
     9    33    28    1
    10    28     1    1
    11     1     2   am
    12     2     3    2
    13     2     5    1
    14     5     6   ar
    15     6     7   ar
    16     7     8   ar
    17     8     9   ar
    18     9    10   ar
    19     9    11   ar
    20    11    12    1
    21    11    13   ar
    22    13    15    1
    23    15    16   ar
    24    16    17   ar
    25    17    18   ar
    26    18    19    1
    27    18    20   ar
    28    20    21   ar
    29    13    14   ar
    30    14    22    1
    31    22    23    1
    32    23    24    1
    33    24    25    1
    34    25    26    1
    35    26    27    1
    36    28    29    1
    37    29    30    1
    38    30    31    1
    39    38    39   ar
    40    39    40   ar
    41    40    41   ar
    42    41    42    1
    43    42    43    2
    44    43    44    1
    45    44    45   ar
    46    44    46   ar
    47    41    36   ar
    48    31    28    1
    49    10     5   ar
    50    21    15   ar
    51    27    22    1
    52    14     8   ar
    53    32    35    1
    54     1     4    1
@<TRIPOS>MOLECULE
*****
 49 54 0 0 0
SMALL
GASTEIGER

@<TRIPOS>ATOM
      1 N         142.0047  139.4672  156.6032 N.am    1  UNL1       -0.2964
      2 C         142.9928  139.8913  157.6491 C.2     1  UNL1        0.2461
      3 O         144.4628  139.8461  157.3543 O.2     1  UNL1       -0.2701
      4 H         141.0399  139.4969  156.7967 H       1  UNL1        0.1501
      5 C         142.5107  140.3607  158.9898 C.ar    1  UNL1        0.0534
      6 C         141.3188  141.2665  159.0833 C.ar    1  UNL1        0.0060
      7 C         140.8368  141.7358  160.4240 C.ar    1  UNL1        0.0173
      8 C         141.5468  141.2993  161.6711 C.ar    1  UNL1        0.0595
      9 C         142.7387  140.3935  161.5776 C.ar    1  UNL1        0.0134
     10 C         143.2207  139.9242  160.2370 C.ar    1  UNL1        0.0057
     11 C         143.2322  140.1316  162.9697 C.ar    1  UNL1       -0.0032
     12 C         144.4064  139.2759  163.3425 C.3     1  UNL1        0.0326
     13 C         142.3452  140.8756  163.9236 C.ar    1  UNL1        0.0737
     14 N         141.3036  141.5973  163.1210 N.ar    1  UNL1       -0.3281
     15 C         142.4769  140.8945  165.4177 C.ar    1  UNL1        0.0969
     16 C         142.9290  142.1433  166.1150 C.ar    1  UNL1        0.0229
     17 C         143.0606  142.1622  167.6091 C.ar    1  UNL1        0.0328
     18 C         142.7402  140.9324  168.4058 C.ar    1  UNL1        0.1592
     19 F         142.8718  140.9514  169.9000 F       1  UNL1       -0.2025
     20 C         142.2880  139.6837  167.7086 C.ar    1  UNL1        0.1284
     21 N         142.1564  139.6647  166.2145 N.ar    1  UNL1       -0.2400
     22 C         140.2107  142.4646  163.6716 C.3     1  UNL1        0.0855
     23 C         140.4868  143.9024  163.9982 C.3     1  UNL1        0.0226
     24 C         139.3938  144.7697  164.5488 C.3     1  UNL1        0.0019
     25 C         138.0248  144.1993  164.7728 C.3     1  UNL1        0.0001
     26 C         137.7486  142.7615  164.4463 C.3     1  UNL1        0.0019
     27 C         138.8416  141.8942  163.8957 C.3     1  UNL1        0.0226
     28 C         142.4868  138.9979  155.2625 C.3     1  UNL1        0.1261
     29 C         142.5602  140.4199  154.7911 C.3     1  UNL1        0.0270
     30 C         143.0422  139.9507  153.4505 C.3     1  UNL1        0.0043
     31 C         142.9688  138.5286  153.9219 C.3     1  UNL1        0.0270
     32 N         143.4087  136.5690  155.2383 N.am    1  UNL1       -0.2680
     33 C         142.4133  137.5758  155.7339 C.2     1  UNL1        0.2430
     34 O         141.3445  137.1604  156.7009 O.2     1  UNL1       -0.2730
     35 H         144.1103  136.8416  154.6036 H       1  UNL1        0.1563
     36 C         142.6986  132.6647  155.2817 C.ar    1  UNL1        0.2258
     37 N         142.7721  134.0867  154.8103 N.ar    1  UNL1       -0.1966
     38 C         143.3353  135.1469  155.7097 C.ar    1  UNL1        0.1373
     39 C         143.8249  134.7849  157.0806 C.ar    1  UNL1        0.0347
     40 C         143.7514  133.3628  157.5520 C.ar    1  UNL1        0.0075
     41 C         143.1883  132.3026  156.6526 C.ar    1  UNL1        0.0534
     42 C         143.1148  130.8806  157.1239 C.2     1  UNL1        0.0058
     43 C         144.2379  130.2987  157.9302 C.2     1  UNL1        0.0152
     44 C         144.1644  128.8766  158.4016 C.2     1  UNL1        0.0729
     45 O         143.9140  128.5786  159.8503 O.co2   1  UNL1       -0.5446
     46 O         144.3413  127.7525  157.4244 O.co2   1  UNL1       -0.5446
     47 O         142.1355  131.6045  154.3822 O.3     1  UNL1       -0.4602
     48 C         140.0889  130.0568  154.7894 C.3     1  UNL1        0.0512
     49 C         140.6548  131.3697  154.3353 C.3     1  UNL1        0.2072
@<TRIPOS>UNITY_ATOM_ATTR
45 1
charge -1
@<TRIPOS>BOND
     1    48    49    1
     2    49    47    1
     3    47    36    1
     4    36    37   ar
     5    37    38   ar
     6    38    32    1
     7    32    33   am
     8    33    34    2
     9    33    28    1
    10    28     1    1
    11     1     2   am
    12     2     3    2
    13     2     5    1
    14     5     6   ar
    15     6     7   ar
    16     7     8   ar
    17     8     9   ar
    18     9    10   ar
    19     9    11   ar
    20    11    12    1
    21    11    13   ar
    22    13    15    1
    23    15    16   ar
    24    16    17   ar
    25    17    18   ar
    26    18    19    1
    27    18    20   ar
    28    20    21   ar
    29    13    14   ar
    30    14    22    1
    31    22    23    1
    32    23    24    1
    33    24    25    1
    34    25    26    1
    35    26    27    1
    36    28    29    1
    37    29    30    1
    38    30    31    1
    39    38    39   ar
    40    39    40   ar
    41    40    41   ar
    42    41    42    1
    43    42    43    2
    44    43    44    1
    45    44    45   ar
    46    44    46   ar
    47    41    36   ar
    48    31    28    1
    49    10     5   ar
    50    21    15   ar
    51    27    22    1
    52    14     8   ar
    53    32    35    1
    54     1     4    1
@<TRIPOS>MOLECULE
*****
 49 54 0 0 0
SMALL
GASTEIGER

@<TRIPOS>ATOM
      1 N         141.9571  138.8407  155.8999 N.am    1  UNL1       -0.2964
      2 C         143.1786  139.1409  156.7171 C.2     1  UNL1        0.2461
      3 O         144.5425  138.8684  156.1553 O.2     1  UNL1       -0.2701
      4 H         141.0620  139.0196  156.2687 H       1  UNL1        0.1501
      5 C         143.0363  139.7136  158.0962 C.ar    1  UNL1        0.0534
      6 C         143.8093  140.9395  158.4826 C.ar    1  UNL1        0.0060
      7 C         143.6670  141.5122  159.8617 C.ar    1  UNL1        0.0173
      8 C         142.7516  140.8588  160.8543 C.ar    1  UNL1        0.0595
      9 C         141.9786  139.6328  160.4678 C.ar    1  UNL1        0.0134
     10 C         142.1210  139.0602  159.0888 C.ar    1  UNL1        0.0057
     11 C         141.1590  139.2097  161.6507 C.ar    1  UNL1       -0.0032
     12 C         140.2351  138.0293  161.7062 C.3     1  UNL1        0.0326
     13 C         141.4254  140.1741  162.7682 C.ar    1  UNL1        0.0737
     14 N         142.4098  141.1934  162.2760 N.ar    1  UNL1       -0.3281
     15 C         140.8148  140.1275  164.1375 C.ar    1  UNL1        0.0969
     16 C         139.4075  140.6023  164.3477 C.ar    1  UNL1        0.0229
     17 C         138.7968  140.5557  165.7169 C.ar    1  UNL1        0.0328
     18 C         139.5934  140.0343  166.8760 C.ar    1  UNL1        0.1592
     19 F         138.9827  139.9877  168.2453 F       1  UNL1       -0.2025
     20 C         141.0006  139.5595  166.6658 C.ar    1  UNL1        0.1284
     21 N         141.6113  139.6061  165.2966 N.ar    1  UNL1       -0.2400
     22 C         142.9563  142.3450  163.0667 C.3     1  UNL1        0.0855
     23 C         143.9425  142.0968  164.1693 C.3     1  UNL1        0.0226
     24 C         144.4889  143.2485  164.9599 C.3     1  UNL1        0.0019
     25 C         144.0492  144.6482  164.6479 C.3     1  UNL1        0.0001
     26 C         143.0630  144.8964  163.5453 C.3     1  UNL1        0.0019
     27 C         142.5166  143.7447  162.7547 C.3     1  UNL1        0.0226
     28 C         142.0995  138.2681  154.5208 C.3     1  UNL1        0.1261
     29 C         142.0641  139.6517  153.9427 C.3     1  UNL1        0.0270
     30 C         142.2064  139.0791  152.5636 C.3     1  UNL1        0.0043
     31 C         142.2418  137.6955  153.1418 C.3     1  UNL1        0.0270
     32 N         143.3496  136.0245  154.9125 N.am    1  UNL1       -0.2680
     33 C         142.1348  136.8844  155.0989 C.2     1  UNL1        0.2430
     34 O         140.9553  136.3607  155.8636 O.2     1  UNL1       -0.2730
     35 H         144.1237  136.3682  154.4106 H       1  UNL1        0.1563
     36 C         143.1182  132.0730  155.1990 C.ar    1  UNL1        0.2258
     37 N         143.0829  133.4566  154.6209 N.ar    1  UNL1       -0.1966
     38 C         143.3849  134.6408  155.4907 C.ar    1  UNL1        0.1373
     39 C         143.7222  134.4413  156.9385 C.ar    1  UNL1        0.0347
     40 C         143.7575  133.0576  157.5167 C.ar    1  UNL1        0.0075
     41 C         143.4555  131.8735  156.6470 C.ar    1  UNL1        0.0534
     42 C         143.4907  130.4898  157.2251 C.2     1  UNL1        0.0058
     43 C         144.4704  130.1553  158.3106 C.2     1  UNL1        0.0152
     44 C         144.5057  128.7717  158.8888 C.2     1  UNL1        0.0729
     45 O         145.1426  127.6530  158.1186 O.co2   1  UNL1       -0.5446
     46 O         143.9041  128.5066  160.2370 O.co2   1  UNL1       -0.5446
     47 O         142.8161  130.8888  154.3293 O.3     1  UNL1       -0.4602
     48 C         140.2406  130.8987  154.6701 C.3     1  UNL1        0.0512
     49 C         141.4328  130.6923  153.7836 C.3     1  UNL1        0.2072
@<TRIPOS>UNITY_ATOM_ATTR
45 1
charge -1
@<TRIPOS>BOND
     1    48    49    1
     2    49    47    1
     3    47    36    1
     4    36    37   ar
     5    37    38   ar
     6    38    32    1
     7    32    33   am
     8    33    34    2
     9    33    28    1
    10    28     1    1
    11     1     2   am
    12     2     3    2
    13     2     5    1
    14     5     6   ar
    15     6     7   ar
    16     7     8   ar
    17     8     9   ar
    18     9    10   ar
    19     9    11   ar
    20    11    12    1
    21    11    13   ar
    22    13    15    1
    23    15    16   ar
    24    16    17   ar
    25    17    18   ar
    26    18    19    1
    27    18    20   ar
    28    20    21   ar
    29    13    14   ar
    30    14    22    1
    31    22    23    1
    32    23    24    1
    33    24    25    1
    34    25    26    1
    35    26    27    1
    36    28    29    1
    37    29    30    1
    38    30    31    1
    39    38    39   ar
    40    39    40   ar
    41    40    41   ar
    42    41    42    1
    43    42    43    2
    44    43    44    1
    45    44    45   ar
    46    44    46   ar
    47    41    36   ar
    48    31    28    1
    49    10     5   ar
    50    21    15   ar
    51    27    22    1
    52    14     8   ar
    53    32    35    1
    54     1     4    1
@<TRIPOS>MOLECULE
*****
 49 54 0 0 0
SMALL
GASTEIGER

@<TRIPOS>ATOM
      1 N         142.2923  136.7558  155.3788 N.am    1  UNL1       -0.2964
      2 C         141.1757  137.2010  156.2760 C.2     1  UNL1        0.2461
      3 O         139.7573  136.8467  155.9405 O.2     1  UNL1       -0.2701
      4 H         143.2232  136.9884  155.5990 H       1  UNL1        0.1501
      5 C         141.4776  138.0005  157.5088 C.ar    1  UNL1        0.0534
      6 C         142.8212  137.8874  158.1658 C.ar    1  UNL1        0.0060
      7 C         143.1230  138.6869  159.3985 C.ar    1  UNL1        0.0173
      8 C         142.0811  139.5995  159.9743 C.ar    1  UNL1        0.0595
      9 C         140.7374  139.7127  159.3173 C.ar    1  UNL1        0.0134
     10 C         140.4356  138.9132  158.0846 C.ar    1  UNL1        0.0057
     11 C         139.9158  140.6877  160.1073 C.ar    1  UNL1       -0.0032
     12 C         138.5058  141.1008  159.8051 C.3     1  UNL1        0.0326
     13 C         140.7517  141.1773  161.2526 C.ar    1  UNL1        0.0737
     14 N         142.0900  140.5047  161.1704 N.ar    1  UNL1       -0.3281
     15 C         140.3244  142.1658  162.2968 C.ar    1  UNL1        0.0969
     16 C         139.4854  141.7165  163.4562 C.ar    1  UNL1        0.0229
     17 C         139.0580  142.7050  164.5003 C.ar    1  UNL1        0.0328
     18 C         139.4697  144.1427  164.3851 C.ar    1  UNL1        0.1592
     19 F         139.0423  145.1313  165.4292 F       1  UNL1       -0.2025
     20 C         140.3087  144.5920  163.2257 C.ar    1  UNL1        0.1284
     21 N         140.7360  143.6036  162.1815 N.ar    1  UNL1       -0.2400
     22 C         143.2359  140.7026  162.1179 C.3     1  UNL1        0.0855
     23 C         144.0748  141.9430  162.0316 C.3     1  UNL1        0.0226
     24 C         145.2207  142.1408  162.9791 C.3     1  UNL1        0.0019
     25 C         145.5276  141.0982  164.0129 C.3     1  UNL1        0.0001
     26 C         144.6887  139.8577  164.0992 C.3     1  UNL1        0.0019
     27 C         143.5428  139.6599  163.1517 C.3     1  UNL1        0.0226
     28 C         141.9905  135.9563  154.1460 C.3     1  UNL1        0.1261
     29 C         141.7342  137.2241  153.3865 C.3     1  UNL1        0.0270
     30 C         141.4324  136.4247  152.1537 C.3     1  UNL1        0.0043
     31 C         141.6886  135.1568  152.9132 C.3     1  UNL1        0.0270
     32 N         143.6542  134.2649  155.2048 N.am    1  UNL1       -0.2680
     33 C         142.2467  134.6884  154.9054 C.2     1  UNL1        0.2430
     34 O         141.0954  133.8440  155.3655 O.2     1  UNL1       -0.2730
     35 H         144.4098  134.8191  154.9029 H       1  UNL1        0.1563
     36 C         143.7456  130.4105  156.1458 C.ar    1  UNL1        0.2258
     37 N         143.4894  131.6784  155.3863 N.ar    1  UNL1       -0.1966
     38 C         143.9104  132.9970  155.9644 C.ar    1  UNL1        0.1373
     39 C         144.5875  133.0477  157.3018 C.ar    1  UNL1        0.0347
     40 C         144.8437  131.7797  158.0613 C.ar    1  UNL1        0.0075
     41 C         144.4227  130.4611  157.4833 C.ar    1  UNL1        0.0534
     42 C         144.6789  129.1932  158.2427 C.2     1  UNL1        0.0058
     43 C         143.7227  128.7527  159.3112 C.2     1  UNL1        0.0152
     44 C         143.9789  127.4848  160.0706 C.2     1  UNL1        0.0729
     45 O         145.3862  127.0175  160.2972 O.co2   1  UNL1       -0.5446
     46 O         142.8278  126.6842  160.6035 O.co2   1  UNL1       -0.5446
     47 O         143.3246  129.0919  155.5677 O.3     1  UNL1       -0.4602
     48 C         140.7799  129.1980  155.0546 C.3     1  UNL1        0.0512
     49 C         141.9314  128.5842  155.7943 C.3     1  UNL1        0.2072
@<TRIPOS>UNITY_ATOM_ATTR
45 1
charge -1
@<TRIPOS>BOND
     1    48    49    1
     2    49    47    1
     3    47    36    1
     4    36    37   ar
     5    37    38   ar
     6    38    32    1
     7    32    33   am
     8    33    34    2
     9    33    28    1
    10    28     1    1
    11     1     2   am
    12     2     3    2
    13     2     5    1
    14     5     6   ar
    15     6     7   ar
    16     7     8   ar
    17     8     9   ar
    18     9    10   ar
    19     9    11   ar
    20    11    12    1
    21    11    13   ar
    22    13    15    1
    23    15    16   ar
    24    16    17   ar
    25    17    18   ar
    26    18    19    1
    27    18    20   ar
    28    20    21   ar
    29    13    14   ar
    30    14    22    1
    31    22    23    1
    32    23    24    1
    33    24    25    1
    34    25    26    1
    35    26    27    1
    36    28    29    1
    37    29    30    1
    38    30    31    1
    39    38    39   ar
    40    39    40   ar
    41    40    41   ar
    42    41    42    1
    43    42    43    2
    44    43    44    1
    45    44    45   ar
    46    44    46   ar
    47    41    36   ar
    48    31    28    1
    49    10     5   ar
    50    21    15   ar
    51    27    22    1
    52    14     8   ar
    53    32    35    1
    54     1     4    1
@<TRIPOS>MOLECULE
*****
 49 54 0 0 0
SMALL
GASTEIGER

@<TRIPOS>ATOM
      1 N         144.1557  139.3466  156.7502 N.am    1  UNL1       -0.2964
      2 C         143.0874  140.2721  157.2521 C.2     1  UNL1        0.2461
      3 O         142.3243  141.1301  156.2869 O.2     1  UNL1       -0.2701
      4 H         144.6566  138.7834  157.3836 H       1  UNL1        0.1501
      5 C         142.7820  140.3396  158.7191 C.ar    1  UNL1        0.0534
      6 C         143.6540  141.1518  159.6301 C.ar    1  UNL1        0.0060
      7 C         143.3486  141.2192  161.0971 C.ar    1  UNL1        0.0173
      8 C         142.1712  140.4745  161.6531 C.ar    1  UNL1        0.0595
      9 C         141.2992  139.6624  160.7422 C.ar    1  UNL1        0.0134
     10 C         141.6046  139.5949  159.2752 C.ar    1  UNL1        0.0057
     11 C         140.2156  139.0395  161.5715 C.ar    1  UNL1       -0.0032
     12 C         139.1217  138.1463  161.0660 C.3     1  UNL1        0.0326
     13 C         140.4179  139.4668  162.9951 C.ar    1  UNL1        0.0737
     14 N         141.6265  140.3537  163.0456 N.ar    1  UNL1       -0.3281
     15 C         139.5618  139.0758  164.1631 C.ar    1  UNL1        0.0969
     16 C         138.8608  140.1313  164.9659 C.ar    1  UNL1        0.0229
     17 C         138.0047  139.7404  166.1339 C.ar    1  UNL1        0.0328
     18 C         137.8496  138.2939  166.4991 C.ar    1  UNL1        0.1592
     19 F         136.9935  137.9028  167.6671 F       1  UNL1       -0.2025
     20 C         138.5505  137.2383  165.6963 C.ar    1  UNL1        0.1284
     21 N         139.4066  137.6292  164.5284 N.ar    1  UNL1       -0.2400
     22 C         142.1914  141.0053  164.2729 C.3     1  UNL1        0.0855
     23 C         142.5973  140.1663  165.4482 C.3     1  UNL1        0.0226
     24 C         143.1621  140.8180  166.6754 C.3     1  UNL1        0.0019
     25 C         143.3210  142.3086  166.7275 C.3     1  UNL1        0.0001
     26 C         142.9150  143.1477  165.5523 C.3     1  UNL1        0.0019
     27 C         142.3502  142.4960  164.3250 C.3     1  UNL1        0.0226
     28 C         144.4611  139.2791  155.2831 C.3     1  UNL1        0.1261
     29 C         145.2909  140.5232  155.3986 C.3     1  UNL1        0.0270
     30 C         145.5963  140.4558  153.9316 C.3     1  UNL1        0.0043
     31 C         144.7665  139.2116  153.8161 C.3     1  UNL1        0.0270
     32 N         144.2822  136.6872  155.2673 N.am    1  UNL1       -0.2680
     33 C         143.6313  138.0349  155.1675 C.2     1  UNL1        0.2430
     34 O         142.1504  138.1384  154.9522 O.2     1  UNL1       -0.2730
     35 H         145.2542  136.6193  155.4087 H       1  UNL1        0.1563
     36 C         142.6450  133.1777  156.1347 C.ar    1  UNL1        0.2258
     37 N         143.4749  134.4218  156.2502 N.ar    1  UNL1       -0.1966
     38 C         143.4523  135.4431  155.1518 C.ar    1  UNL1        0.1373
     39 C         142.5999  135.2201  153.9379 C.ar    1  UNL1        0.0347
     40 C         141.7700  133.9759  153.8223 C.ar    1  UNL1        0.0075
     41 C         141.7925  132.9547  154.9208 C.ar    1  UNL1        0.0534
     42 C         140.9627  131.7106  154.8053 C.2     1  UNL1        0.0058
     43 C         141.3899  130.6069  153.8836 C.2     1  UNL1        0.0152
     44 C         140.5600  129.3628  153.7681 C.2     1  UNL1        0.0729
     45 O         139.5927  129.0027  154.8566 O.co2   1  UNL1       -0.5446
     46 O         140.6974  128.4786  152.5642 O.co2   1  UNL1       -0.5446
     47 O         142.6675  132.1564  157.2332 O.3     1  UNL1       -0.4602
     48 C         145.1017  131.5712  157.9277 C.3     1  UNL1        0.0512
     49 C         143.7929  131.1682  157.3155 C.3     1  UNL1        0.2072
@<TRIPOS>UNITY_ATOM_ATTR
45 1
charge -1
@<TRIPOS>BOND
     1    48    49    1
     2    49    47    1
     3    47    36    1
     4    36    37   ar
     5    37    38   ar
     6    38    32    1
     7    32    33   am
     8    33    34    2
     9    33    28    1
    10    28     1    1
    11     1     2   am
    12     2     3    2
    13     2     5    1
    14     5     6   ar
    15     6     7   ar
    16     7     8   ar
    17     8     9   ar
    18     9    10   ar
    19     9    11   ar
    20    11    12    1
    21    11    13   ar
    22    13    15    1
    23    15    16   ar
    24    16    17   ar
    25    17    18   ar
    26    18    19    1
    27    18    20   ar
    28    20    21   ar
    29    13    14   ar
    30    14    22    1
    31    22    23    1
    32    23    24    1
    33    24    25    1
    34    25    26    1
    35    26    27    1
    36    28    29    1
    37    29    30    1
    38    30    31    1
    39    38    39   ar
    40    39    40   ar
    41    40    41   ar
    42    41    42    1
    43    42    43    2
    44    43    44    1
    45    44    45   ar
    46    44    46   ar
    47    41    36   ar
    48    31    28    1
    49    10     5   ar
    50    21    15   ar
    51    27    22    1
    52    14     8   ar
    53    32    35    1
    54     1     4    1
@<TRIPOS>MOLECULE
*****
 49 54 0 0 0
SMALL
GASTEIGER

@<TRIPOS>ATOM
      1 N         137.5745  140.9778  156.9040 N.am    1  UNL1       -0.2964
      2 C         138.5469  141.7389  157.7555 C.2     1  UNL1        0.2461
      3 O         139.3364  142.8693  157.1648 O.2     1  UNL1       -0.2701
      4 H         137.0564  140.2359  157.2917 H       1  UNL1        0.1501
      5 C         138.7299  141.3696  159.1978 C.ar    1  UNL1        0.0534
      6 C         138.0574  140.1480  159.7504 C.ar    1  UNL1        0.0060
      7 C         138.2404  139.7788  161.1926 C.ar    1  UNL1        0.0173
      8 C         139.0959  140.6312  162.0823 C.ar    1  UNL1        0.0595
      9 C         139.7684  141.8528  161.5297 C.ar    1  UNL1        0.0134
     10 C         139.5854  142.2220  160.0875 C.ar    1  UNL1        0.0057
     11 C         140.5465  142.4955  162.6395 C.ar    1  UNL1       -0.0032
     12 C         141.3714  143.7435  162.5299 C.3     1  UNL1        0.0326
     13 C         140.3548  141.6712  163.8779 C.ar    1  UNL1        0.0737
     14 N         139.4583  140.5189  163.5336 N.ar    1  UNL1       -0.3281
     15 C         140.9545  141.9501  165.2243 C.ar    1  UNL1        0.0969
     16 C         140.1106  142.5449  166.3125 C.ar    1  UNL1        0.0229
     17 C         140.7101  142.8238  167.6588 C.ar    1  UNL1        0.0328
     18 C         142.1536  142.5081  167.9170 C.ar    1  UNL1        0.1592
     19 F         142.7532  142.7870  169.2634 F       1  UNL1       -0.2025
     20 C         142.9975  141.9133  166.8288 C.ar    1  UNL1        0.1284
     21 N         142.3979  141.6344  165.4825 N.ar    1  UNL1       -0.2400
     22 C         139.0040  139.4433  164.4752 C.3     1  UNL1        0.0855
     23 C         139.3773  138.0136  164.2169 C.3     1  UNL1        0.0226
     24 C         138.9229  136.9381  165.1585 C.3     1  UNL1        0.0019
     25 C         138.0952  137.2921  166.3583 C.3     1  UNL1        0.0001
     26 C         137.7219  138.7218  166.6166 C.3     1  UNL1        0.0019
     27 C         138.1763  139.7973  165.6750 C.3     1  UNL1        0.0226
     28 C         137.3915  141.3471  155.4616 C.3     1  UNL1        0.1261
     29 C         136.4312  142.4282  155.8603 C.3     1  UNL1        0.0270
     30 C         136.2482  142.7975  154.4181 C.3     1  UNL1        0.0043
     31 C         137.2085  141.7164  154.0194 C.3     1  UNL1        0.0270
     32 N         137.9637  138.8249  155.2140 N.am    1  UNL1       -0.2680
     33 C         138.3518  140.2659  155.0630 C.2     1  UNL1        0.2430
     34 O         139.7003  140.6258  154.5132 O.2     1  UNL1       -0.2730
     35 H         137.0787  138.5887  155.5749 H       1  UNL1        0.1563
     36 C         140.8894  136.1503  155.4053 C.ar    1  UNL1        0.2258
     37 N         139.9291  137.2314  155.8039 N.ar    1  UNL1       -0.1966
     38 C         138.9241  137.7438  154.8153 C.ar    1  UNL1        0.1373
     39 C         138.8793  137.1751  153.4281 C.ar    1  UNL1        0.0347
     40 C         139.8397  136.0939  153.0294 C.ar    1  UNL1        0.0075
     41 C         140.8447  135.5815  154.0180 C.ar    1  UNL1        0.0534
     42 C         141.8051  134.5004  153.6193 C.2     1  UNL1        0.0058
     43 C         141.9809  133.2939  154.4930 C.2     1  UNL1        0.0152
     44 C         142.9413  132.2128  154.0943 C.2     1  UNL1        0.0729
     45 O         142.9835  131.7336  152.6735 O.co2   1  UNL1       -0.5446
     46 O         143.8594  131.6108  155.1164 O.co2   1  UNL1       -0.5446
     47 O         141.8945  135.6379  156.3939 O.3     1  UNL1       -0.4602
     48 C         144.2201  136.3995  155.5213 C.3     1  UNL1        0.0512
     49 C         143.1829  136.3764  156.6047 C.3     1  UNL1        0.2072
@<TRIPOS>UNITY_ATOM_ATTR
45 1
charge -1
@<TRIPOS>BOND
     1    48    49    1
     2    49    47    1
     3    47    36    1
     4    36    37   ar
     5    37    38   ar
     6    38    32    1
     7    32    33   am
     8    33    34    2
     9    33    28    1
    10    28     1    1
    11     1     2   am
    12     2     3    2
    13     2     5    1
    14     5     6   ar
    15     6     7   ar
    16     7     8   ar
    17     8     9   ar
    18     9    10   ar
    19     9    11   ar
    20    11    12    1
    21    11    13   ar
    22    13    15    1
    23    15    16   ar
    24    16    17   ar
    25    17    18   ar
    26    18    19    1
    27    18    20   ar
    28    20    21   ar
    29    13    14   ar
    30    14    22    1
    31    22    23    1
    32    23    24    1
    33    24    25    1
    34    25    26    1
    35    26    27    1
    36    28    29    1
    37    29    30    1
    38    30    31    1
    39    38    39   ar
    40    39    40   ar
    41    40    41   ar
    42    41    42    1
    43    42    43    2
    44    43    44    1
    45    44    45   ar
    46    44    46   ar
    47    41    36   ar
    48    31    28    1
    49    10     5   ar
    50    21    15   ar
    51    27    22    1
    52    14     8   ar
    53    32    35    1
    54     1     4    1
