@<TRIPOS>MOLECULE
*****
 40 43 0 0 0
SMALL
GASTEIGER

@<TRIPOS>ATOM
      1 C         138.8284  139.8641  158.8385 C.3     1  UNL1        0.0118
      2 C         139.9721  138.9884  159.2567 C.3     1  UNL1        0.0179
      3 C         139.9434  138.3033  160.5907 C.3     1  UNL1        0.0724
      4 N         138.7709  138.4939  161.5066 N.3     1  UNL1       -0.2689
      5 C         137.6271  139.3696  161.0885 C.3     1  UNL1        0.0724
      6 C         137.6559  140.0547  159.7544 C.3     1  UNL1        0.0179
      7 C         138.8571  140.5493  157.5044 C.3     1  UNL1        0.0851
      8 N         136.7085  140.3191  156.0620 N.am    1  UNL1       -0.3021
      9 C         137.6014  141.1448  156.9400 C.2     1  UNL1        0.2226
     10 O         137.2387  142.5662  157.2535 O.2     1  UNL1       -0.2751
     11 H         136.9465  139.3862  155.8562 H       1  UNL1        0.1497
     12 C         135.4528  140.9146  155.4975 C.3     1  UNL1        0.0955
     13 C         134.1207  140.5493  156.0824 C.ar    1  UNL1        0.0149
     14 C         132.8635  141.1276  155.5036 C.ar    1  UNL1        0.0036
     15 C         131.5314  140.7622  156.0884 C.ar    1  UNL1        0.0574
     16 C         131.4565  139.8187  157.2520 C.ar    1  UNL1        0.2250
     17 N         132.7137  139.2404  157.8308 N.ar    1  UNL1       -0.2104
     18 C         134.0458  139.6057  157.2460 C.ar    1  UNL1        0.0993
     19 O         130.1244  139.4533  157.8368 O.3     1  UNL1       -0.4561
     20 C         129.5037  138.1257  157.5173 C.3     1  UNL1        0.2542
     21 C         135.5293  141.8755  154.3483 C.3     1  UNL1        0.0242
     22 C         135.4794  141.3645  152.9388 C.3     1  UNL1        0.0020
     23 C         137.2463  139.5156  152.4819 C.3     1  UNL1        0.0000
     24 C         135.8149  139.9318  152.6482 C.3     1  UNL1        0.0001
     25 C         138.7422  137.8087  162.8407 C.3     1  UNL1        0.1007
     26 C         139.8279  138.0707  163.8419 C.ar    1  UNL1        0.0129
     27 C         141.0534  137.2319  164.0532 C.ar    1  UNL1        0.0176
     28 C         141.8618  137.8602  165.1495 C.ar    1  UNL1        0.0799
     29 N         141.1359  139.0874  165.6157 N.ar    1  UNL1       -0.3038
     30 C         139.8789  139.2174  164.8076 C.ar    1  UNL1        0.0772
     31 C         141.5877  140.0205  166.6997 C.ar    1  UNL1        0.0640
     32 C         142.4254  139.5051  167.8321 C.ar    1  UNL1        0.0175
     33 C         142.8772  140.4383  168.9161 C.ar    1  UNL1        0.0053
     34 C         142.4912  141.8869  168.8676 C.ar    1  UNL1        0.0715
     35 C         141.6535  142.4024  167.7352 C.ar    1  UNL1        0.0053
     36 C         141.2017  141.4692  166.6512 C.ar    1  UNL1        0.0175
     37 C         142.9430  142.8201  169.9516 C.3     1  UNL1        0.4186
     38 F         143.3947  143.7533  171.0357 F       1  UNL1       -0.1659
     39 F         144.3560  142.3526  169.7652 F       1  UNL1       -0.1659
     40 F         141.5299  143.2877  170.1381 F       1  UNL1       -0.1659
@<TRIPOS>BOND
     1    23    24    1
     2    24    22    1
     3    22    21    1
     4    21    12    1
     5    12     8    1
     6     8     9   am
     7     9    10    2
     8     9     7    1
     9     7     1    1
    10     1     2    1
    11     2     3    1
    12     3     4    1
    13     4    25    1
    14    25    26    1
    15    26    27   ar
    16    27    28   ar
    17    28    29   ar
    18    29    31    1
    19    31    32   ar
    20    32    33   ar
    21    33    34   ar
    22    34    37    1
    23    37    38    1
    24    37    39    1
    25    37    40    1
    26    34    35   ar
    27    35    36   ar
    28    29    30   ar
    29     4     5    1
    30     5     6    1
    31    12    13    1
    32    13    14   ar
    33    14    15   ar
    34    15    16   ar
    35    16    19    1
    36    19    20    1
    37    16    17   ar
    38    17    18   ar
    39     6     1    1
    40    18    13   ar
    41    30    26   ar
    42    36    31   ar
    43     8    11    1
@<TRIPOS>MOLECULE
*****
 40 43 0 0 0
SMALL
GASTEIGER

@<TRIPOS>ATOM
      1 C         141.9385  138.5691  159.2779 C.3     1  UNL1        0.0118
      2 C         142.7699  137.9939  160.3860 C.3     1  UNL1        0.0179
      3 C         142.1227  137.5913  161.6779 C.3     1  UNL1        0.0724
      4 N         140.6441  137.7641  161.8617 N.3     1  UNL1       -0.2689
      5 C         139.8127  138.3393  160.7536 C.3     1  UNL1        0.0724
      6 C         140.4599  138.7418  159.4618 C.3     1  UNL1        0.0179
      7 C         142.5858  138.9717  157.9860 C.3     1  UNL1        0.0851
      8 N         141.7626  136.9469  156.5814 N.am    1  UNL1       -0.3021
      9 C         142.8287  137.9472  156.9176 C.2     1  UNL1        0.2226
     10 O         144.1377  137.9228  156.1855 O.2     1  UNL1       -0.2751
     11 H         140.9034  136.9629  157.0619 H       1  UNL1        0.1497
     12 C         142.0055  135.9224  155.5131 C.3     1  UNL1        0.0955
     13 C         142.2801  134.4967  155.8897 C.ar    1  UNL1        0.0149
     14 C         141.5570  133.3837  155.1908 C.ar    1  UNL1        0.0036
     15 C         141.8316  131.9580  155.5675 C.ar    1  UNL1        0.0574
     16 C         142.8292  131.6452  156.6430 C.ar    1  UNL1        0.2250
     17 N         143.5523  132.7581  157.3419 N.ar    1  UNL1       -0.2104
     18 C         143.2777  134.1839  156.9652 C.ar    1  UNL1        0.0993
     19 O         143.1038  130.2194  157.0196 O.3     1  UNL1       -0.4561
     20 C         144.3019  129.5128  156.4583 C.3     1  UNL1        0.2542
     21 C         141.9738  136.3236  154.0681 C.3     1  UNL1        0.0242
     22 C         140.9067  137.2534  153.5711 C.3     1  UNL1        0.0020
     23 C         138.6357  137.2655  154.8328 C.3     1  UNL1        0.0000
     24 C         139.4640  136.8514  153.6528 C.3     1  UNL1        0.0001
     25 C         139.9968  137.3615  163.1537 C.3     1  UNL1        0.1007
     26 C         139.7942  138.3766  164.2392 C.ar    1  UNL1        0.0129
     27 C         138.4847  138.9877  164.6416 C.ar    1  UNL1        0.0176
     28 C         138.7466  139.9476  165.7640 C.ar    1  UNL1        0.0799
     29 N         140.2180  139.9298  166.0554 N.ar    1  UNL1       -0.3038
     30 C         140.8654  138.9589  165.1130 C.ar    1  UNL1        0.0772
     31 C         140.9188  140.7406  167.1049 C.ar    1  UNL1        0.0640
     32 C         140.2929  142.0026  167.6199 C.ar    1  UNL1        0.0175
     33 C         140.9937  142.8134  168.6694 C.ar    1  UNL1        0.0053
     34 C         142.3205  142.3621  169.2039 C.ar    1  UNL1        0.0715
     35 C         142.9465  141.1000  168.6890 C.ar    1  UNL1        0.0053
     36 C         142.2457  140.2892  167.6395 C.ar    1  UNL1        0.0175
     37 C         143.0213  143.1728  170.2534 C.3     1  UNL1        0.4186
     38 F         143.7221  143.9837  171.3030 F       1  UNL1       -0.1659
     39 F         144.2257  142.2868  170.1336 F       1  UNL1       -0.1659
     40 F         141.8169  144.0589  170.3732 F       1  UNL1       -0.1659
@<TRIPOS>BOND
     1    23    24    1
     2    24    22    1
     3    22    21    1
     4    21    12    1
     5    12     8    1
     6     8     9   am
     7     9    10    2
     8     9     7    1
     9     7     1    1
    10     1     2    1
    11     2     3    1
    12     3     4    1
    13     4    25    1
    14    25    26    1
    15    26    27   ar
    16    27    28   ar
    17    28    29   ar
    18    29    31    1
    19    31    32   ar
    20    32    33   ar
    21    33    34   ar
    22    34    37    1
    23    37    38    1
    24    37    39    1
    25    37    40    1
    26    34    35   ar
    27    35    36   ar
    28    29    30   ar
    29     4     5    1
    30     5     6    1
    31    12    13    1
    32    13    14   ar
    33    14    15   ar
    34    15    16   ar
    35    16    19    1
    36    19    20    1
    37    16    17   ar
    38    17    18   ar
    39     6     1    1
    40    18    13   ar
    41    30    26   ar
    42    36    31   ar
    43     8    11    1
@<TRIPOS>MOLECULE
*****
 40 43 0 0 0
SMALL
GASTEIGER

@<TRIPOS>ATOM
      1 C         141.8227  138.2525  162.2617 C.3     1  UNL1        0.0118
      2 C         140.5690  138.5144  161.4810 C.3     1  UNL1        0.0179
      3 C         140.6173  138.5756  159.9831 C.3     1  UNL1        0.0724
      4 N         141.9194  138.3750  159.2659 N.3     1  UNL1       -0.2689
      5 C         143.1731  138.1131  160.0466 C.3     1  UNL1        0.0724
      6 C         143.1247  138.0518  161.5445 C.3     1  UNL1        0.0179
      7 C         141.7744  138.1912  163.7598 C.3     1  UNL1        0.0851
      8 N         142.2400  140.6743  164.3661 N.am    1  UNL1       -0.3021
      9 C         142.5081  139.2134  164.5763 C.2     1  UNL1        0.2226
     10 O         143.5099  138.7749  165.6029 O.2     1  UNL1       -0.2751
     11 H         141.5824  140.9621  163.6923 H       1  UNL1        0.1497
     12 C         142.9737  141.6965  165.1826 C.3     1  UNL1        0.0955
     13 C         142.4515  142.0947  166.5312 C.ar    1  UNL1        0.0149
     14 C         143.3715  142.1149  167.7157 C.ar    1  UNL1        0.0036
     15 C         142.8493  142.5131  169.0643 C.ar    1  UNL1        0.0574
     16 C         141.4070  142.8911  169.2284 C.ar    1  UNL1        0.2250
     17 N         140.4870  142.8709  168.0439 N.ar    1  UNL1       -0.2104
     18 C         141.0092  142.4727  166.6953 C.ar    1  UNL1        0.0993
     19 O         140.8848  143.2893  170.5770 O.3     1  UNL1       -0.4561
     20 C         139.4824  142.9341  170.9730 C.3     1  UNL1        0.2542
     21 C         144.2296  142.3205  164.6505 C.3     1  UNL1        0.0242
     22 C         144.1536  143.3413  163.5539 C.3     1  UNL1        0.0020
     23 C         142.2966  145.1355  163.8397 C.3     1  UNL1        0.0000
     24 C         143.7459  144.7503  163.8679 C.3     1  UNL1        0.0001
     25 C         141.9677  138.4362  157.7679 C.3     1  UNL1        0.1007
     26 C         141.8978  137.1725  156.9629 C.ar    1  UNL1        0.0129
     27 C         140.8824  136.8559  155.9053 C.ar    1  UNL1        0.0176
     28 C         141.1881  135.4912  155.3629 C.ar    1  UNL1        0.0799
     29 N         142.3925  134.9643  156.0854 N.ar    1  UNL1       -0.3038
     30 C         142.8311  136.0035  157.0742 C.ar    1  UNL1        0.0772
     31 C         143.0439  133.6323  155.8588 C.ar    1  UNL1        0.0640
     32 C         144.1436  133.1707  156.7684 C.ar    1  UNL1        0.0175
     33 C         144.7950  131.8387  156.5419 C.ar    1  UNL1        0.0053
     34 C         144.3466  130.9682  155.4057 C.ar    1  UNL1        0.0715
     35 C         143.2468  131.4297  154.4960 C.ar    1  UNL1        0.0053
     36 C         142.5955  132.7617  154.7226 C.ar    1  UNL1        0.0175
     37 C         144.9979  129.6361  155.1791 C.3     1  UNL1        0.4186
     38 F         145.6493  128.3041  154.9524 F       1  UNL1       -0.1659
     39 F         144.9796  129.3759  156.6562 F       1  UNL1       -0.1659
     40 F         145.0163  129.8964  153.7019 F       1  UNL1       -0.1659
@<TRIPOS>BOND
     1    23    24    1
     2    24    22    1
     3    22    21    1
     4    21    12    1
     5    12     8    1
     6     8     9   am
     7     9    10    2
     8     9     7    1
     9     7     1    1
    10     1     2    1
    11     2     3    1
    12     3     4    1
    13     4    25    1
    14    25    26    1
    15    26    27   ar
    16    27    28   ar
    17    28    29   ar
    18    29    31    1
    19    31    32   ar
    20    32    33   ar
    21    33    34   ar
    22    34    37    1
    23    37    38    1
    24    37    39    1
    25    37    40    1
    26    34    35   ar
    27    35    36   ar
    28    29    30   ar
    29     4     5    1
    30     5     6    1
    31    12    13    1
    32    13    14   ar
    33    14    15   ar
    34    15    16   ar
    35    16    19    1
    36    19    20    1
    37    16    17   ar
    38    17    18   ar
    39     6     1    1
    40    18    13   ar
    41    30    26   ar
    42    36    31   ar
    43     8    11    1
@<TRIPOS>MOLECULE
*****
 40 43 0 0 0
SMALL
GASTEIGER

@<TRIPOS>ATOM
      1 C         141.7216  138.5272  158.6288 C.3     1  UNL1        0.0118
      2 C         142.0745  138.1596  160.0396 C.3     1  UNL1        0.0179
      3 C         141.0059  138.1086  161.0909 C.3     1  UNL1        0.0724
      4 N         139.5844  138.4251  160.7316 N.3     1  UNL1       -0.2689
      5 C         139.2315  138.7927  159.3208 C.3     1  UNL1        0.0724
      6 C         140.3001  138.8437  158.2694 C.3     1  UNL1        0.0179
      7 C         142.7902  138.5782  157.5773 C.3     1  UNL1        0.0851
      8 N         142.0932  136.2284  156.7156 N.am    1  UNL1       -0.3021
      9 C         143.0606  137.3748  156.7237 C.2     1  UNL1        0.2226
     10 O         144.2982  137.3178  155.8782 O.2     1  UNL1       -0.2751
     11 H         141.2809  136.2658  157.2706 H       1  UNL1        0.1497
     12 C         142.3636  135.0250  155.8620 C.3     1  UNL1        0.0955
     13 C         142.9621  133.7921  156.4717 C.ar    1  UNL1        0.0149
     14 C         142.3652  132.4467  156.1823 C.ar    1  UNL1        0.0036
     15 C         142.9637  131.2138  156.7920 C.ar    1  UNL1        0.0574
     16 C         144.1590  131.3262  157.6911 C.ar    1  UNL1        0.2250
     17 N         144.7558  132.6716  157.9806 N.ar    1  UNL1       -0.2104
     18 C         144.1574  133.9045  157.3709 C.ar    1  UNL1        0.0993
     19 O         144.7575  130.0933  158.3009 O.3     1  UNL1       -0.4561
     20 C         143.8719  128.9556  158.7147 C.3     1  UNL1        0.2542
     21 C         142.0354  135.0545  154.3986 C.3     1  UNL1        0.0242
     22 C         140.7947  135.7498  153.9221 C.3     1  UNL1        0.0020
     23 C         142.1352  137.8116  153.0845 C.3     1  UNL1        0.0000
     24 C         140.8454  137.2012  153.5469 C.3     1  UNL1        0.0001
     25 C         138.5158  138.3741  161.7830 C.3     1  UNL1        0.1007
     26 C         138.4998  139.3904  162.8861 C.ar    1  UNL1        0.0129
     27 C         137.6885  140.6517  162.9111 C.ar    1  UNL1        0.0176
     28 C         137.9796  141.3647  164.1983 C.ar    1  UNL1        0.0799
     29 N         138.9710  140.5439  164.9689 N.ar    1  UNL1       -0.3038
     30 C         139.2924  139.3237  164.1579 C.ar    1  UNL1        0.0772
     31 C         139.5407  140.8837  166.3142 C.ar    1  UNL1        0.0640
     32 C         139.4349  139.9019  167.4433 C.ar    1  UNL1        0.0175
     33 C         140.0046  140.2417  168.7886 C.ar    1  UNL1        0.0053
     34 C         140.6802  141.5633  169.0049 C.ar    1  UNL1        0.0715
     35 C         140.7861  142.5452  167.8758 C.ar    1  UNL1        0.0053
     36 C         140.2163  142.2054  166.5305 C.ar    1  UNL1        0.0175
     37 C         141.2500  141.9031  170.3502 C.3     1  UNL1        0.4186
     38 F         141.8197  142.2430  171.6955 F       1  UNL1       -0.1659
     39 F         141.3068  140.4443  170.6945 F       1  UNL1       -0.1659
     40 F         141.1931  143.3620  170.0058 F       1  UNL1       -0.1659
@<TRIPOS>BOND
     1    23    24    1
     2    24    22    1
     3    22    21    1
     4    21    12    1
     5    12     8    1
     6     8     9   am
     7     9    10    2
     8     9     7    1
     9     7     1    1
    10     1     2    1
    11     2     3    1
    12     3     4    1
    13     4    25    1
    14    25    26    1
    15    26    27   ar
    16    27    28   ar
    17    28    29   ar
    18    29    31    1
    19    31    32   ar
    20    32    33   ar
    21    33    34   ar
    22    34    37    1
    23    37    38    1
    24    37    39    1
    25    37    40    1
    26    34    35   ar
    27    35    36   ar
    28    29    30   ar
    29     4     5    1
    30     5     6    1
    31    12    13    1
    32    13    14   ar
    33    14    15   ar
    34    15    16   ar
    35    16    19    1
    36    19    20    1
    37    16    17   ar
    38    17    18   ar
    39     6     1    1
    40    18    13   ar
    41    30    26   ar
    42    36    31   ar
    43     8    11    1
@<TRIPOS>MOLECULE
*****
 40 43 0 0 0
SMALL
GASTEIGER

@<TRIPOS>ATOM
      1 C         138.3689  141.2098  158.4551 C.3     1  UNL1        0.0118
      2 C         138.0100  141.3268  159.9068 C.3     1  UNL1        0.0179
      3 C         138.4956  140.2983  160.8846 C.3     1  UNL1        0.0724
      4 N         139.3402  139.1528  160.4108 N.3     1  UNL1       -0.2689
      5 C         139.6991  139.0358  158.9591 C.3     1  UNL1        0.0724
      6 C         139.2135  140.0643  157.9812 C.3     1  UNL1        0.0179
      7 C         137.8832  142.2383  157.4771 C.3     1  UNL1        0.0851
      8 N         136.1143  140.5574  156.5853 N.am    1  UNL1       -0.3021
      9 C         136.7793  141.9003  156.5194 C.2     1  UNL1        0.2226
     10 O         136.3405  142.9052  155.4959 O.2     1  UNL1       -0.2751
     11 H         136.4023  139.8978  157.2571 H       1  UNL1        0.1497
     12 C         135.0104  140.2194  155.6276 C.3     1  UNL1        0.0955
     13 C         133.6108  140.0302  156.1329 C.ar    1  UNL1        0.0149
     14 C         133.2872  138.8721  157.0294 C.ar    1  UNL1        0.0036
     15 C         131.8876  138.6829  157.5347 C.ar    1  UNL1        0.0574
     16 C         130.8116  139.6519  157.1434 C.ar    1  UNL1        0.2250
     17 N         131.1352  140.8100  156.2468 N.ar    1  UNL1       -0.2104
     18 C         132.5348  140.9992  155.7415 C.ar    1  UNL1        0.0993
     19 O         129.4120  139.4627  157.6487 O.3     1  UNL1       -0.4561
     20 C         129.1780  138.8502  158.9977 C.3     1  UNL1        0.2542
     21 C         135.3062  140.0705  154.1646 C.3     1  UNL1        0.0242
     22 C         136.5384  139.3403  153.7190 C.3     1  UNL1        0.0020
     23 C         137.2435  136.9760  152.9052 C.3     1  UNL1        0.0000
     24 C         136.6673  137.8664  153.9658 C.3     1  UNL1        0.0001
     25 C         139.8259  138.1243  161.3887 C.3     1  UNL1        0.1007
     26 C         139.7659  138.4024  162.8615 C.ar    1  UNL1        0.0129
     27 C         138.8521  137.7376  163.8478 C.ar    1  UNL1        0.0176
     28 C         139.1306  138.3185  165.2024 C.ar    1  UNL1        0.0799
     29 N         140.2166  139.3424  165.0533 N.ar    1  UNL1       -0.3038
     30 C         140.6093  139.3943  163.6065 C.ar    1  UNL1        0.0772
     31 C         140.8064  140.1693  166.1571 C.ar    1  UNL1        0.0640
     32 C         140.2904  141.5539  166.4148 C.ar    1  UNL1        0.0175
     33 C         140.8802  142.3807  167.5186 C.ar    1  UNL1        0.0053
     34 C         141.9860  141.8229  168.3647 C.ar    1  UNL1        0.0715
     35 C         142.5021  140.4383  168.1071 C.ar    1  UNL1        0.0053
     36 C         141.9123  139.6115  167.0032 C.ar    1  UNL1        0.0175
     37 C         142.5758  142.6498  169.4686 C.3     1  UNL1        0.4186
     38 F         143.1657  143.4766  170.5724 F       1  UNL1       -0.1659
     39 F         141.3480  143.5114  169.4792 F       1  UNL1       -0.1659
     40 F         143.8037  141.7881  169.4580 F       1  UNL1       -0.1659
@<TRIPOS>BOND
     1    23    24    1
     2    24    22    1
     3    22    21    1
     4    21    12    1
     5    12     8    1
     6     8     9   am
     7     9    10    2
     8     9     7    1
     9     7     1    1
    10     1     2    1
    11     2     3    1
    12     3     4    1
    13     4    25    1
    14    25    26    1
    15    26    27   ar
    16    27    28   ar
    17    28    29   ar
    18    29    31    1
    19    31    32   ar
    20    32    33   ar
    21    33    34   ar
    22    34    37    1
    23    37    38    1
    24    37    39    1
    25    37    40    1
    26    34    35   ar
    27    35    36   ar
    28    29    30   ar
    29     4     5    1
    30     5     6    1
    31    12    13    1
    32    13    14   ar
    33    14    15   ar
    34    15    16   ar
    35    16    19    1
    36    19    20    1
    37    16    17   ar
    38    17    18   ar
    39     6     1    1
    40    18    13   ar
    41    30    26   ar
    42    36    31   ar
    43     8    11    1
@<TRIPOS>MOLECULE
*****
 40 43 0 0 0
SMALL
GASTEIGER

@<TRIPOS>ATOM
      1 C         139.9741  138.0028  161.7844 C.3     1  UNL1        0.0118
      2 C         139.3057  138.3284  160.4816 C.3     1  UNL1        0.0179
      3 C         140.1305  138.5273  159.2447 C.3     1  UNL1        0.0724
      4 N         141.6237  138.4004  159.3104 N.3     1  UNL1       -0.2689
      5 C         142.2921  138.0748  160.6131 C.3     1  UNL1        0.0724
      6 C         141.4673  137.8760  161.8501 C.3     1  UNL1        0.0179
      7 C         139.1493  137.8039  163.0214 C.3     1  UNL1        0.0851
      8 N         139.4745  140.3015  163.6591 N.am    1  UNL1       -0.3021
      9 C         138.9935  138.9239  164.0070 C.2     1  UNL1        0.2226
     10 O         138.3567  138.6663  165.3405 O.2     1  UNL1       -0.2751
     11 H         139.8924  140.4706  162.7839 H       1  UNL1        0.1497
     12 C         139.3187  141.4214  164.6447 C.3     1  UNL1        0.0955
     13 C         140.3531  141.6321  165.7103 C.ar    1  UNL1        0.0149
     14 C         141.7310  142.0929  165.3373 C.ar    1  UNL1        0.0036
     15 C         142.7654  142.3036  166.4029 C.ar    1  UNL1        0.0574
     16 C         142.4220  142.0535  167.8415 C.ar    1  UNL1        0.2250
     17 N         141.0441  141.5928  168.2144 N.ar    1  UNL1       -0.2104
     18 C         140.0097  141.3821  167.1488 C.ar    1  UNL1        0.0993
     19 O         143.4564  142.2642  168.9071 O.3     1  UNL1       -0.4561
     20 C         143.0552  142.8145  170.2435 C.3     1  UNL1        0.2542
     21 C         138.1284  142.3307  164.5646 C.3     1  UNL1        0.0242
     22 C         138.2997  143.8089  164.7537 C.3     1  UNL1        0.0020
     23 C         138.9809  145.0585  162.5803 C.3     1  UNL1        0.0000
     24 C         139.3241  144.5540  163.9505 C.3     1  UNL1        0.0001
     25 C         142.4485  138.5993  158.0733 C.3     1  UNL1        0.1007
     26 C         142.9031  137.4127  157.2763 C.ar    1  UNL1        0.0129
     27 C         143.6120  137.4573  155.9551 C.ar    1  UNL1        0.0176
     28 C         143.8756  136.0454  155.5227 C.ar    1  UNL1        0.0799
     29 N         143.3297  135.1282  156.5767 N.ar    1  UNL1       -0.3038
     30 C         142.7286  135.9733  157.6604 C.ar    1  UNL1        0.0772
     31 C         143.3766  133.6291  156.5513 C.ar    1  UNL1        0.0640
     32 C         144.5490  132.9053  157.1440 C.ar    1  UNL1        0.0175
     33 C         144.5959  131.4063  157.1186 C.ar    1  UNL1        0.0053
     34 C         143.4704  130.6311  156.5005 C.ar    1  UNL1        0.0715
     35 C         142.2979  131.3549  155.9078 C.ar    1  UNL1        0.0053
     36 C         142.2510  132.8539  155.9332 C.ar    1  UNL1        0.0175
     37 C         143.5173  129.1320  156.4751 C.3     1  UNL1        0.4186
     38 F         143.5643  127.6330  156.4498 F       1  UNL1       -0.1659
     39 F         142.1259  129.0980  155.9158 F       1  UNL1       -0.1659
     40 F         144.9087  129.1661  157.0346 F       1  UNL1       -0.1659
@<TRIPOS>BOND
     1    23    24    1
     2    24    22    1
     3    22    21    1
     4    21    12    1
     5    12     8    1
     6     8     9   am
     7     9    10    2
     8     9     7    1
     9     7     1    1
    10     1     2    1
    11     2     3    1
    12     3     4    1
    13     4    25    1
    14    25    26    1
    15    26    27   ar
    16    27    28   ar
    17    28    29   ar
    18    29    31    1
    19    31    32   ar
    20    32    33   ar
    21    33    34   ar
    22    34    37    1
    23    37    38    1
    24    37    39    1
    25    37    40    1
    26    34    35   ar
    27    35    36   ar
    28    29    30   ar
    29     4     5    1
    30     5     6    1
    31    12    13    1
    32    13    14   ar
    33    14    15   ar
    34    15    16   ar
    35    16    19    1
    36    19    20    1
    37    16    17   ar
    38    17    18   ar
    39     6     1    1
    40    18    13   ar
    41    30    26   ar
    42    36    31   ar
    43     8    11    1
@<TRIPOS>MOLECULE
*****
 40 43 0 0 0
SMALL
GASTEIGER

@<TRIPOS>ATOM
      1 C         140.2679  145.0956  156.9289 C.3     1  UNL1        0.0118
      2 C         139.4241  145.9734  156.0529 C.3     1  UNL1        0.0179
      3 C         138.5698  145.3641  154.9811 C.3     1  UNL1        0.0724
      4 N         138.5594  143.8770  154.7853 N.3     1  UNL1       -0.2689
      5 C         139.4032  142.9992  155.6612 C.3     1  UNL1        0.0724
      6 C         140.2575  143.6085  156.7330 C.3     1  UNL1        0.0179
      7 C         141.1223  145.7050  158.0008 C.3     1  UNL1        0.0851
      8 N         139.8129  145.2364  160.1954 N.am    1  UNL1       -0.3021
      9 C         141.0798  145.1563  159.3962 C.2     1  UNL1        0.2226
     10 O         142.3041  144.5274  159.9924 O.2     1  UNL1       -0.2751
     11 H         139.0093  145.6492  159.8040 H       1  UNL1        0.1497
     12 C         139.7704  144.6877  161.5907 C.3     1  UNL1        0.0955
     13 C         139.2482  143.3032  161.8366 C.ar    1  UNL1        0.0149
     14 C         140.1297  142.1146  161.5913 C.ar    1  UNL1        0.0036
     15 C         139.6076  140.7301  161.8372 C.ar    1  UNL1        0.0574
     16 C         138.2039  140.5342  162.3284 C.ar    1  UNL1        0.2250
     17 N         137.3224  141.7228  162.5738 N.ar    1  UNL1       -0.2104
     18 C         137.8446  143.1073  162.3279 C.ar    1  UNL1        0.0993
     19 O         137.6818  139.1497  162.5744 O.3     1  UNL1       -0.4561
     20 C         138.2860  137.9812  161.8536 C.3     1  UNL1        0.2542
     21 C         140.2501  145.5235  162.7402 C.3     1  UNL1        0.0242
     22 C         141.0183  144.8877  163.8607 C.3     1  UNL1        0.0020
     23 C         143.5904  145.1461  163.6013 C.3     1  UNL1        0.0000
     24 C         142.3648  144.2814  163.5975 C.3     1  UNL1        0.0001
     25 C         137.7050  143.2676  153.7134 C.3     1  UNL1        0.1007
     26 C         136.8063  142.1113  154.0375 C.ar    1  UNL1        0.0129
     27 C         137.0136  140.6876  153.6133 C.ar    1  UNL1        0.0176
     28 C         135.8779  139.8720  154.1563 C.ar    1  UNL1        0.0799
     29 N         134.9685  140.7917  154.9162 N.ar    1  UNL1       -0.3038
     30 C         135.5423  142.1756  154.8427 C.ar    1  UNL1        0.0772
     31 C         133.7070  140.3967  155.6250 C.ar    1  UNL1        0.0640
     32 C         133.6765  139.1553  156.4662 C.ar    1  UNL1        0.0175
     33 C         132.4150  138.7603  157.1750 C.ar    1  UNL1        0.0053
     34 C         131.1839  139.6068  157.0426 C.ar    1  UNL1        0.0715
     35 C         131.2142  140.8483  156.2013 C.ar    1  UNL1        0.0053
     36 C         132.4758  141.2433  155.4925 C.ar    1  UNL1        0.0175
     37 C         129.9223  139.2119  157.7514 C.3     1  UNL1        0.4186
     38 F         128.6607  138.8168  158.4603 F       1  UNL1       -0.1659
     39 F         129.1595  140.2358  156.9643 F       1  UNL1       -0.1659
     40 F         130.6851  138.1878  158.5386 F       1  UNL1       -0.1659
@<TRIPOS>BOND
     1    23    24    1
     2    24    22    1
     3    22    21    1
     4    21    12    1
     5    12     8    1
     6     8     9   am
     7     9    10    2
     8     9     7    1
     9     7     1    1
    10     1     2    1
    11     2     3    1
    12     3     4    1
    13     4    25    1
    14    25    26    1
    15    26    27   ar
    16    27    28   ar
    17    28    29   ar
    18    29    31    1
    19    31    32   ar
    20    32    33   ar
    21    33    34   ar
    22    34    37    1
    23    37    38    1
    24    37    39    1
    25    37    40    1
    26    34    35   ar
    27    35    36   ar
    28    29    30   ar
    29     4     5    1
    30     5     6    1
    31    12    13    1
    32    13    14   ar
    33    14    15   ar
    34    15    16   ar
    35    16    19    1
    36    19    20    1
    37    16    17   ar
    38    17    18   ar
    39     6     1    1
    40    18    13   ar
    41    30    26   ar
    42    36    31   ar
    43     8    11    1
@<TRIPOS>MOLECULE
*****
 40 43 0 0 0
SMALL
GASTEIGER

@<TRIPOS>ATOM
      1 C         140.1279  140.2588  160.7511 C.3     1  UNL1        0.0118
      2 C         138.9207  139.8606  159.9548 C.3     1  UNL1        0.0179
      3 C         139.0550  139.5509  158.4933 C.3     1  UNL1        0.0724
      4 N         140.3965  139.6394  157.8281 N.3     1  UNL1       -0.2689
      5 C         141.6037  140.0376  158.6243 C.3     1  UNL1        0.0724
      6 C         141.4694  140.3473  160.0858 C.3     1  UNL1        0.0179
      7 C         139.9937  140.5686  162.2126 C.3     1  UNL1        0.0851
      8 N         141.8174  139.4810  163.7098 N.am    1  UNL1       -0.3021
      9 C         141.2193  140.6976  163.0676 C.2     1  UNL1        0.2226
     10 O         141.8470  142.0432  163.2805 O.2     1  UNL1       -0.2751
     11 H         141.4054  138.5978  163.5701 H       1  UNL1        0.1497
     12 C         143.0430  139.6101  164.5648 C.3     1  UNL1        0.0955
     13 C         142.9071  139.8516  166.0389 C.ar    1  UNL1        0.0149
     14 C         142.5355  141.2140  166.5446 C.ar    1  UNL1        0.0036
     15 C         142.3996  141.4556  168.0187 C.ar    1  UNL1        0.0574
     16 C         142.6353  140.3348  168.9873 C.ar    1  UNL1        0.2250
     17 N         143.0070  138.9724  168.4816 N.ar    1  UNL1       -0.2104
     18 C         143.1429  138.7308  167.0075 C.ar    1  UNL1        0.0993
     19 O         142.4994  140.5764  170.4614 O.3     1  UNL1       -0.4561
     20 C         141.9645  141.8858  170.9607 C.3     1  UNL1        0.2542
     21 C         144.4046  139.4976  163.9456 C.3     1  UNL1        0.0242
     22 C         144.9474  140.6244  163.1174 C.3     1  UNL1        0.0020
     23 C         145.0104  142.8221  164.5015 C.3     1  UNL1        0.0000
     24 C         145.7278  141.7265  163.7701 C.3     1  UNL1        0.0001
     25 C         140.5308  139.3296  156.3665 C.3     1  UNL1        0.1007
     26 C         140.8827  137.9405  155.9235 C.ar    1  UNL1        0.0129
     27 C         140.5594  137.3314  154.5914 C.ar    1  UNL1        0.0176
     28 C         141.0966  135.9310  154.5794 C.ar    1  UNL1        0.0799
     29 N         141.7520  135.6745  155.9041 N.ar    1  UNL1       -0.3038
     30 C         141.6197  136.9164  156.7348 C.ar    1  UNL1        0.0772
     31 C         142.4218  134.3999  156.3243 C.ar    1  UNL1        0.0640
     32 C         143.5962  134.4417  157.2564 C.ar    1  UNL1        0.0175
     33 C         144.2661  133.1671  157.6766 C.ar    1  UNL1        0.0053
     34 C         143.7616  131.8506  157.1647 C.ar    1  UNL1        0.0715
     35 C         142.5872  131.8087  156.2326 C.ar    1  UNL1        0.0053
     36 C         141.9173  133.0833  155.8124 C.ar    1  UNL1        0.0175
     37 C         144.4315  130.5760  157.5849 C.3     1  UNL1        0.4186
     38 F         145.1014  129.3014  158.0052 F       1  UNL1       -0.1659
     39 F         143.3389  129.7854  156.9282 F       1  UNL1       -0.1659
     40 F         145.5241  131.3667  158.2416 F       1  UNL1       -0.1659
@<TRIPOS>BOND
     1    23    24    1
     2    24    22    1
     3    22    21    1
     4    21    12    1
     5    12     8    1
     6     8     9   am
     7     9    10    2
     8     9     7    1
     9     7     1    1
    10     1     2    1
    11     2     3    1
    12     3     4    1
    13     4    25    1
    14    25    26    1
    15    26    27   ar
    16    27    28   ar
    17    28    29   ar
    18    29    31    1
    19    31    32   ar
    20    32    33   ar
    21    33    34   ar
    22    34    37    1
    23    37    38    1
    24    37    39    1
    25    37    40    1
    26    34    35   ar
    27    35    36   ar
    28    29    30   ar
    29     4     5    1
    30     5     6    1
    31    12    13    1
    32    13    14   ar
    33    14    15   ar
    34    15    16   ar
    35    16    19    1
    36    19    20    1
    37    16    17   ar
    38    17    18   ar
    39     6     1    1
    40    18    13   ar
    41    30    26   ar
    42    36    31   ar
    43     8    11    1
@<TRIPOS>MOLECULE
*****
 40 43 0 0 0
SMALL
GASTEIGER

@<TRIPOS>ATOM
      1 C         139.7923  140.0000  159.6228 C.3     1  UNL1        0.0118
      2 C         140.9702  140.2133  158.7190 C.3     1  UNL1        0.0179
      3 C         140.7759  140.8355  157.3681 C.3     1  UNL1        0.0724
      4 N         139.4037  141.2445  156.9210 N.3     1  UNL1       -0.2689
      5 C         138.2258  141.0312  157.8249 C.3     1  UNL1        0.0724
      6 C         138.4201  140.4089  159.1758 C.3     1  UNL1        0.0179
      7 C         139.9865  139.3777  160.9738 C.3     1  UNL1        0.0851
      8 N         139.5278  141.0224  162.9320 N.am    1  UNL1       -0.3021
      9 C         139.1379  139.8159  162.1304 C.2     1  UNL1        0.2226
     10 O         137.8995  139.0477  162.4855 O.2     1  UNL1       -0.2751
     11 H         140.3406  141.5266  162.6990 H       1  UNL1        0.1497
     12 C         138.6792  141.4606  164.0886 C.3     1  UNL1        0.0955
     13 C         139.0023  140.9913  165.4762 C.ar    1  UNL1        0.0149
     14 C         139.9731  141.7614  166.3214 C.ar    1  UNL1        0.0036
     15 C         140.2962  141.2921  167.7090 C.ar    1  UNL1        0.0574
     16 C         139.6485  140.0526  168.2513 C.ar    1  UNL1        0.2250
     17 N         138.6777  139.2825  167.4061 N.ar    1  UNL1       -0.2104
     18 C         138.3546  139.7519  166.0186 C.ar    1  UNL1        0.0993
     19 O         139.9716  139.5833  169.6389 O.3     1  UNL1       -0.4561
     20 C         141.1125  140.2000  170.3926 C.3     1  UNL1        0.2542
     21 C         137.5075  142.3682  163.8577 C.3     1  UNL1        0.0242
     22 C         137.7272  143.7620  163.3485 C.3     1  UNL1        0.0020
     23 C         138.4991  144.9724  165.5138 C.3     1  UNL1        0.0000
     24 C         138.6835  144.6765  164.0549 C.3     1  UNL1        0.0001
     25 C         139.2094  141.8668  155.5700 C.3     1  UNL1        0.1007
     26 C         139.7466  143.2394  155.2923 C.ar    1  UNL1        0.0129
     27 C         141.0849  143.5581  154.6944 C.ar    1  UNL1        0.0176
     28 C         141.2053  145.0500  154.5962 C.ar    1  UNL1        0.0799
     29 N         139.9414  145.6534  155.1335 N.ar    1  UNL1       -0.3038
     30 C         139.0399  144.5344  155.5636 C.ar    1  UNL1        0.0772
     31 C         139.6331  147.1186  155.2245 C.ar    1  UNL1        0.0640
     32 C         138.8874  147.6559  156.4099 C.ar    1  UNL1        0.0175
     33 C         138.5792  149.1210  156.5009 C.ar    1  UNL1        0.0053
     34 C         139.0166  150.0489  155.4067 C.ar    1  UNL1        0.0715
     35 C         139.7624  149.5116  154.2212 C.ar    1  UNL1        0.0053
     36 C         140.0706  148.0465  154.1302 C.ar    1  UNL1        0.0175
     37 C         138.7084  151.5140  155.4977 C.3     1  UNL1        0.4186
     38 F         138.4001  152.9792  155.5887 F       1  UNL1       -0.1659
     39 F         138.8159  151.4437  156.9922 F       1  UNL1       -0.1659
     40 F         138.6009  151.5843  154.0032 F       1  UNL1       -0.1659
@<TRIPOS>BOND
     1    23    24    1
     2    24    22    1
     3    22    21    1
     4    21    12    1
     5    12     8    1
     6     8     9   am
     7     9    10    2
     8     9     7    1
     9     7     1    1
    10     1     2    1
    11     2     3    1
    12     3     4    1
    13     4    25    1
    14    25    26    1
    15    26    27   ar
    16    27    28   ar
    17    28    29   ar
    18    29    31    1
    19    31    32   ar
    20    32    33   ar
    21    33    34   ar
    22    34    37    1
    23    37    38    1
    24    37    39    1
    25    37    40    1
    26    34    35   ar
    27    35    36   ar
    28    29    30   ar
    29     4     5    1
    30     5     6    1
    31    12    13    1
    32    13    14   ar
    33    14    15   ar
    34    15    16   ar
    35    16    19    1
    36    19    20    1
    37    16    17   ar
    38    17    18   ar
    39     6     1    1
    40    18    13   ar
    41    30    26   ar
    42    36    31   ar
    43     8    11    1
