@<TRIPOS>MOLECULE
*****
 30 31 0 0 0
SMALL
GASTEIGER

@<TRIPOS>ATOM
      1 C         141.2422  143.0398  164.4774 C.ar    1  UNL1       -0.0185
      2 C         142.6050  142.5425  164.8588 C.ar    1  UNL1       -0.0041
      3 C         142.9083  142.2088  166.2895 C.ar    1  UNL1        0.0057
      4 C         141.8489  142.3725  167.3386 C.ar    1  UNL1        0.0696
      5 C         140.4862  142.8698  166.9572 C.ar    1  UNL1        0.0095
      6 C         140.1828  143.2034  165.5266 C.ar    1  UNL1        0.0677
      7 C         140.0288  144.3744  158.7550 C.2     1  UNL1        0.2256
      8 O         139.3493  143.3655  157.8774 O.2     1  UNL1       -0.2749
      9 N         140.3321  144.0407  160.1856 N.am    1  UNL1       -0.2795
     10 C         141.0117  145.0497  161.0632 C.3     1  UNL1        0.0937
     11 C         141.3150  144.7160  162.4938 C.3     1  UNL1        0.0259
     12 C         140.9389  143.3734  163.0468 C.3     1  UNL1        0.0257
     13 C         140.2593  142.3645  162.1692 C.3     1  UNL1        0.0259
     14 C         139.9560  142.6981  160.7386 C.3     1  UNL1        0.0937
     15 C         141.7211  145.8995  157.5060 C.3     1  UNL1        0.0101
     16 C         140.4050  145.7170  158.2020 C.3     1  UNL1        0.0853
     17 C         142.1523  142.0388  168.7693 C.2     1  UNL1        0.3078
     18 O         143.1604  142.8476  169.5305 O.2     1  UNL1       -0.2516
     19 N         141.4476  140.8963  169.4386 N.am    1  UNL1       -0.1708
     20 H         140.7859  140.3655  168.9390 H       1  UNL1        0.2545
     21 C         141.7509  140.5627  170.8692 C.2     1  UNL1        0.3751
     22 N         140.6777  140.6799  171.9105 N.pl3   1  UNL1       -0.1313
     23 N         143.1276  140.1118  171.2585 N.pl3   1  UNL1       -0.2906
     24 H         139.7741  140.9758  171.6550 H       1  UNL1        0.3060
     25 H         143.8320  140.0349  170.5751 H       1  UNL1        0.2545
     26 H         143.3267  139.8928  172.1975 H       1  UNL1        0.2545
     27 C         138.8200  143.7008  165.1452 C.3     1  UNL1        0.4183
     28 F         137.4572  144.1981  164.7638 F       1  UNL1       -0.1659
     29 F         138.3532  142.2863  164.9686 F       1  UNL1       -0.1659
     30 F         139.2868  145.1153  165.3218 F       1  UNL1       -0.1659
@<TRIPOS>BOND
     1    15    16    1
     2    16     7    1
     3     7     8    2
     4     7     9   am
     5     9    10    1
     6    10    11    1
     7    11    12    1
     8    12     1    1
     9     1     2   ar
    10     2     3   ar
    11     3     4   ar
    12     4    17    1
    13    17    18    2
    14    17    19   am
    15    19    21    1
    16    21    22    2
    17    21    23    1
    18     4     5   ar
    19     5     6   ar
    20     6    27    1
    21    27    28    1
    22    27    29    1
    23    27    30    1
    24    12    13    1
    25    13    14    1
    26    14     9    1
    27     6     1   ar
    28    19    20    1
    29    22    24    1
    30    23    25    1
    31    23    26    1
@<TRIPOS>MOLECULE
*****
 30 31 0 0 0
SMALL
GASTEIGER

@<TRIPOS>ATOM
      1 C         139.8462  141.1494  164.7912 C.ar    1  UNL1       -0.0185
      2 C         140.3954  142.5013  165.1384 C.ar    1  UNL1       -0.0041
      3 C         140.7181  142.8361  166.5645 C.ar    1  UNL1        0.0057
      4 C         140.4917  141.8189  167.6434 C.ar    1  UNL1        0.0696
      5 C         139.9425  140.4670  167.2962 C.ar    1  UNL1        0.0095
      6 C         139.6197  140.1322  165.8701 C.ar    1  UNL1        0.0677
      7 C         138.5550  139.8103  159.0869 C.2     1  UNL1        0.2256
      8 O         137.2043  140.1428  158.5257 O.2     1  UNL1       -0.2749
      9 N         138.8778  140.1451  160.5130 N.am    1  UNL1       -0.2795
     10 C         140.2285  139.8127  161.0741 C.3     1  UNL1        0.0937
     11 C         140.5513  140.1475  162.5002 C.3     1  UNL1        0.0259
     12 C         139.5234  140.8146  163.3651 C.3     1  UNL1        0.0257
     13 C         138.1726  141.1470  162.8040 C.3     1  UNL1        0.0259
     14 C         137.8499  140.8123  161.3779 C.3     1  UNL1        0.0937
     15 C         139.4210  139.1406  156.7307 C.3     1  UNL1        0.0101
     16 C         139.5830  139.1432  158.2219 C.3     1  UNL1        0.0853
     17 C         140.8145  142.1537  169.0695 C.2     1  UNL1        0.3078
     18 O         139.7431  142.0849  170.1170 O.2     1  UNL1       -0.2516
     19 N         142.2087  142.5572  169.4481 N.am    1  UNL1       -0.1708
     20 H         142.9119  142.6023  168.7606 H       1  UNL1        0.2545
     21 C         142.5315  142.8920  170.8742 C.2     1  UNL1        0.3751
     22 N         141.9371  142.0817  171.9878 N.pl3   1  UNL1       -0.1313
     23 N         143.4487  144.0371  171.1867 N.pl3   1  UNL1       -0.2906
     24 H         141.3351  141.3302  171.7827 H       1  UNL1        0.3060
     25 H         143.8388  144.5689  170.4558 H       1  UNL1        0.2545
     26 H         143.6606  144.2568  172.1227 H       1  UNL1        0.2545
     27 C         139.0705  138.7802  165.5229 C.3     1  UNL1        0.4183
     28 F         138.5213  137.4282  165.1758 F       1  UNL1       -0.1659
     29 F         137.6769  139.2900  165.7421 F       1  UNL1       -0.1659
     30 F         140.4641  138.2704  165.3038 F       1  UNL1       -0.1659
@<TRIPOS>BOND
     1    15    16    1
     2    16     7    1
     3     7     8    2
     4     7     9   am
     5     9    10    1
     6    10    11    1
     7    11    12    1
     8    12     1    1
     9     1     2   ar
    10     2     3   ar
    11     3     4   ar
    12     4    17    1
    13    17    18    2
    14    17    19   am
    15    19    21    1
    16    21    22    2
    17    21    23    1
    18     4     5   ar
    19     5     6   ar
    20     6    27    1
    21    27    28    1
    22    27    29    1
    23    27    30    1
    24    12    13    1
    25    13    14    1
    26    14     9    1
    27     6     1   ar
    28    19    20    1
    29    22    24    1
    30    23    25    1
    31    23    26    1
@<TRIPOS>MOLECULE
*****
 30 31 0 0 0
SMALL
GASTEIGER

@<TRIPOS>ATOM
      1 C         141.5650  143.0190  164.4625 C.ar    1  UNL1       -0.0185
      2 C         140.4730  142.9169  165.4857 C.ar    1  UNL1       -0.0041
      3 C         140.8043  142.5524  166.9025 C.ar    1  UNL1        0.0057
      4 C         142.2277  142.2900  167.2961 C.ar    1  UNL1        0.0696
      5 C         143.3198  142.3921  166.2729 C.ar    1  UNL1        0.0095
      6 C         142.9885  142.7566  164.8561 C.ar    1  UNL1        0.0677
      7 C         140.2397  144.4770  158.7953 C.2     1  UNL1        0.2256
      8 O         139.8352  143.4103  157.8214 O.2     1  UNL1       -0.2749
      9 N         140.5710  144.1125  160.2121 N.am    1  UNL1       -0.2795
     10 C         140.9755  145.1792  161.1859 C.3     1  UNL1        0.0937
     11 C         141.3068  144.8147  162.6028 C.3     1  UNL1        0.0259
     12 C         141.2337  143.3835  163.0457 C.3     1  UNL1        0.0257
     13 C         140.8293  142.3168  162.0718 C.3     1  UNL1        0.0259
     14 C         140.4979  142.6813  160.6550 C.3     1  UNL1        0.0937
     15 C         140.0081  146.2693  156.9287 C.3     1  UNL1        0.0101
     16 C         140.3128  145.9082  158.3523 C.3     1  UNL1        0.0853
     17 C         142.5591  141.9255  168.7129 C.2     1  UNL1        0.3078
     18 O         143.7105  142.5891  169.4084 O.2     1  UNL1       -0.2516
     19 N         141.7390  140.8974  169.4342 N.am    1  UNL1       -0.1708
     20 H         140.9833  140.4618  168.9778 H       1  UNL1        0.2545
     21 C         142.0703  140.5329  170.8510 C.2     1  UNL1        0.3751
     22 N         141.0634  140.7606  171.9392 N.pl3   1  UNL1       -0.1313
     23 N         143.4087  139.9405  171.1797 N.pl3   1  UNL1       -0.2906
     24 H         140.1850  141.1494  171.7235 H       1  UNL1        0.3060
     25 H         144.0697  139.7911  170.4655 H       1  UNL1        0.2545
     26 H         143.6262  139.7013  172.1096 H       1  UNL1        0.2545
     27 C         144.0806  142.8587  163.8329 C.3     1  UNL1        0.4183
     28 F         145.1727  142.9608  162.8098 F       1  UNL1       -0.1659
     29 F         143.8883  141.4127  163.4834 F       1  UNL1       -0.1659
     30 F         144.2729  144.3046  164.1825 F       1  UNL1       -0.1659
@<TRIPOS>BOND
     1    15    16    1
     2    16     7    1
     3     7     8    2
     4     7     9   am
     5     9    10    1
     6    10    11    1
     7    11    12    1
     8    12     1    1
     9     1     2   ar
    10     2     3   ar
    11     3     4   ar
    12     4    17    1
    13    17    18    2
    14    17    19   am
    15    19    21    1
    16    21    22    2
    17    21    23    1
    18     4     5   ar
    19     5     6   ar
    20     6    27    1
    21    27    28    1
    22    27    29    1
    23    27    30    1
    24    12    13    1
    25    13    14    1
    26    14     9    1
    27     6     1   ar
    28    19    20    1
    29    22    24    1
    30    23    25    1
    31    23    26    1
@<TRIPOS>MOLECULE
*****
 30 31 0 0 0
SMALL
GASTEIGER

@<TRIPOS>ATOM
      1 C         141.8529  142.7228  164.6085 C.ar    1  UNL1       -0.0185
      2 C         140.4900  142.7680  165.2332 C.ar    1  UNL1       -0.0041
      3 C         140.3289  142.5079  166.7017 C.ar    1  UNL1        0.0057
      4 C         141.5309  142.2027  167.5455 C.ar    1  UNL1        0.0696
      5 C         142.8939  142.1575  166.9208 C.ar    1  UNL1        0.0095
      6 C         143.0549  142.4176  165.4524 C.ar    1  UNL1        0.0677
      7 C         142.4970  143.7632  158.7346 C.2     1  UNL1        0.2256
      8 O         142.4890  145.1710  158.2170 O.2     1  UNL1       -0.2749
      9 N         142.3360  143.5031  160.2031 N.am    1  UNL1       -0.2795
     10 C         142.3440  142.0953  160.7207 C.3     1  UNL1        0.0937
     11 C         142.1830  141.8352  162.1892 C.3     1  UNL1        0.0259
     12 C         142.0139  142.9829  163.1400 C.3     1  UNL1        0.0257
     13 C         142.0059  144.3907  162.6224 C.3     1  UNL1        0.0259
     14 C         142.1669  144.6508  161.1539 C.3     1  UNL1        0.0937
     15 C         143.9677  142.4237  157.0635 C.3     1  UNL1        0.0101
     16 C         142.6660  142.6155  157.7838 C.3     1  UNL1        0.0853
     17 C         141.3699  141.9426  169.0140 C.2     1  UNL1        0.3078
     18 O         141.4634  143.0767  169.9912 O.2     1  UNL1       -0.2516
     19 N         141.1153  140.5484  169.5052 N.am    1  UNL1       -0.1708
     20 H         141.0539  139.8040  168.8638 H       1  UNL1        0.2545
     21 C         140.9543  140.2883  170.9737 C.2     1  UNL1        0.3751
     22 N         141.9171  140.8926  171.9524 N.pl3   1  UNL1       -0.1313
     23 N         139.8305  139.4239  171.4635 N.pl3   1  UNL1       -0.2906
     24 H         142.6546  141.4600  171.6309 H       1  UNL1        0.3060
     25 H         139.1986  139.0272  170.8211 H       1  UNL1        0.2545
     26 H         139.7248  139.2531  172.4273 H       1  UNL1        0.2545
     27 C         144.4179  142.3724  164.8277 C.3     1  UNL1        0.4183
     28 F         145.7809  142.3272  164.2031 F       1  UNL1       -0.1659
     29 F         144.5676  143.8486  165.0474 F       1  UNL1       -0.1659
     30 F         144.2683  140.8962  164.6080 F       1  UNL1       -0.1659
@<TRIPOS>BOND
     1    15    16    1
     2    16     7    1
     3     7     8    2
     4     7     9   am
     5     9    10    1
     6    10    11    1
     7    11    12    1
     8    12     1    1
     9     1     2   ar
    10     2     3   ar
    11     3     4   ar
    12     4    17    1
    13    17    18    2
    14    17    19   am
    15    19    21    1
    16    21    22    2
    17    21    23    1
    18     4     5   ar
    19     5     6   ar
    20     6    27    1
    21    27    28    1
    22    27    29    1
    23    27    30    1
    24    12    13    1
    25    13    14    1
    26    14     9    1
    27     6     1   ar
    28    19    20    1
    29    22    24    1
    30    23    25    1
    31    23    26    1
@<TRIPOS>MOLECULE
*****
 30 31 0 0 0
SMALL
GASTEIGER

@<TRIPOS>ATOM
      1 C         139.0010  139.8068  163.7588 C.ar    1  UNL1       -0.0185
      2 C         138.1919  140.7714  162.9434 C.ar    1  UNL1       -0.0041
      3 C         138.1238  140.6204  161.4526 C.ar    1  UNL1        0.0057
      4 C         138.8649  139.5048  160.7771 C.ar    1  UNL1        0.0696
      5 C         139.6740  138.5403  161.5925 C.ar    1  UNL1        0.0095
      6 C         139.7420  138.6912  163.0833 C.ar    1  UNL1        0.0677
      7 C         139.2732  140.4108  169.7221 C.2     1  UNL1        0.2256
      8 O         138.3635  139.6035  170.6000 O.2     1  UNL1       -0.2749
      9 N         139.2051  140.2598  168.2313 N.am    1  UNL1       -0.2795
     10 C         140.1148  141.0670  167.3534 C.3     1  UNL1        0.0937
     11 C         140.0468  140.9160  165.8626 C.3     1  UNL1        0.0259
     12 C         139.0690  139.9578  165.2496 C.3     1  UNL1        0.0257
     13 C         138.1593  139.1505  166.1275 C.3     1  UNL1        0.0259
     14 C         138.2274  139.3015  167.6184 C.3     1  UNL1        0.0937
     15 C         139.8468  142.7903  170.5931 C.3     1  UNL1        0.0101
     16 C         140.2509  141.3690  170.3351 C.3     1  UNL1        0.0853
     17 C         138.7968  139.3538  159.2863 C.2     1  UNL1        0.3078
     18 O         137.7908  140.1390  158.4981 O.2     1  UNL1       -0.2516
     19 N         139.7349  138.4177  158.5837 N.am    1  UNL1       -0.1708
     20 H         140.3952  137.9024  159.1010 H       1  UNL1        0.2545
     21 C         139.6668  138.2667  157.0929 C.2     1  UNL1        0.3751
     22 N         139.2947  136.9450  156.4891 N.pl3   1  UNL1       -0.1313
     23 N         139.9709  139.4375  156.2058 N.pl3   1  UNL1       -0.2906
     24 H         139.0951  136.1766  157.0713 H       1  UNL1        0.3060
     25 H         140.2151  140.3050  156.6021 H       1  UNL1        0.2545
     26 H         139.9262  139.3384  155.2273 H       1  UNL1        0.2545
     27 C         140.5512  137.7266  163.8987 C.3     1  UNL1        0.4183
     28 F         141.3604  136.7620  164.7140 F       1  UNL1       -0.1659
     29 F         139.3256  136.8930  164.1289 F       1  UNL1       -0.1659
     30 F         141.7768  138.5602  163.6686 F       1  UNL1       -0.1659
@<TRIPOS>BOND
     1    15    16    1
     2    16     7    1
     3     7     8    2
     4     7     9   am
     5     9    10    1
     6    10    11    1
     7    11    12    1
     8    12     1    1
     9     1     2   ar
    10     2     3   ar
    11     3     4   ar
    12     4    17    1
    13    17    18    2
    14    17    19   am
    15    19    21    1
    16    21    22    2
    17    21    23    1
    18     4     5   ar
    19     5     6   ar
    20     6    27    1
    21    27    28    1
    22    27    29    1
    23    27    30    1
    24    12    13    1
    25    13    14    1
    26    14     9    1
    27     6     1   ar
    28    19    20    1
    29    22    24    1
    30    23    25    1
    31    23    26    1
@<TRIPOS>MOLECULE
*****
 30 31 0 0 0
SMALL
GASTEIGER

@<TRIPOS>ATOM
      1 C         143.1092  141.5291  164.3460 C.ar    1  UNL1       -0.0185
      2 C         142.7021  140.1502  164.7738 C.ar    1  UNL1       -0.0041
      3 C         142.4684  139.8537  166.2255 C.ar    1  UNL1        0.0057
      4 C         142.6417  140.9360  167.2494 C.ar    1  UNL1        0.0696
      5 C         143.0487  142.3149  166.8216 C.ar    1  UNL1        0.0095
      6 C         143.2824  142.6114  165.3699 C.ar    1  UNL1        0.0677
      7 C         144.0441  142.7151  158.5391 C.2     1  UNL1        0.2256
      8 O         145.4396  142.7163  157.9891 O.2     1  UNL1       -0.2749
      9 N         143.8103  142.4186  159.9908 N.am    1  UNL1       -0.2795
     10 C         142.4149  142.4173  160.5409 C.3     1  UNL1        0.0937
     11 C         142.1811  142.1208  161.9926 C.3     1  UNL1        0.0259
     12 C         143.3429  141.8256  162.8943 C.3     1  UNL1        0.0257
     13 C         144.7384  141.8268  162.3442 C.3     1  UNL1        0.0259
     14 C         144.9721  142.1233  160.8925 C.3     1  UNL1        0.0937
     15 C         142.4355  144.4270  157.4293 C.3     1  UNL1        0.0101
     16 C         142.8823  143.0103  157.6374 C.3     1  UNL1        0.0853
     17 C         142.4080  140.6395  168.7011 C.2     1  UNL1        0.3078
     18 O         142.9611  139.3847  169.3088 O.2     1  UNL1       -0.2516
     19 N         141.6211  141.5979  169.5451 N.am    1  UNL1       -0.1708
     20 H         141.2580  142.4215  169.1462 H       1  UNL1        0.2545
     21 C         141.3874  141.3014  170.9968 C.2     1  UNL1        0.3751
     22 N         142.0506  142.1390  172.0496 N.pl3   1  UNL1       -0.1313
     23 N         140.4903  140.1672  171.3957 N.pl3   1  UNL1       -0.2906
     24 H         142.6393  142.8834  171.7878 H       1  UNL1        0.3060
     25 H         140.0550  139.6174  170.7046 H       1  UNL1        0.2545
     26 H         140.3369  139.9726  172.3485 H       1  UNL1        0.2545
     27 C         143.6895  143.9903  164.9421 C.3     1  UNL1        0.4183
     28 F         144.0966  145.3692  164.5144 F       1  UNL1       -0.1659
     29 F         142.2706  144.2904  164.5592 F       1  UNL1       -0.1659
     30 F         145.1084  143.6903  165.3251 F       1  UNL1       -0.1659
@<TRIPOS>BOND
     1    15    16    1
     2    16     7    1
     3     7     8    2
     4     7     9   am
     5     9    10    1
     6    10    11    1
     7    11    12    1
     8    12     1    1
     9     1     2   ar
    10     2     3   ar
    11     3     4   ar
    12     4    17    1
    13    17    18    2
    14    17    19   am
    15    19    21    1
    16    21    22    2
    17    21    23    1
    18     4     5   ar
    19     5     6   ar
    20     6    27    1
    21    27    28    1
    22    27    29    1
    23    27    30    1
    24    12    13    1
    25    13    14    1
    26    14     9    1
    27     6     1   ar
    28    19    20    1
    29    22    24    1
    30    23    25    1
    31    23    26    1
@<TRIPOS>MOLECULE
*****
 30 31 0 0 0
SMALL
GASTEIGER

@<TRIPOS>ATOM
      1 C         142.6754  139.4963  164.3417 C.ar    1  UNL1       -0.0185
      2 C         143.2997  138.4933  165.2658 C.ar    1  UNL1       -0.0041
      3 C         143.2921  138.7315  166.7468 C.ar    1  UNL1        0.0057
      4 C         142.6603  139.9728  167.3035 C.ar    1  UNL1        0.0696
      5 C         142.0360  140.9758  166.3794 C.ar    1  UNL1        0.0095
      6 C         142.0435  140.7376  164.8984 C.ar    1  UNL1        0.0677
      7 C         142.7055  138.5434  158.4179 C.2     1  UNL1        0.2256
      8 O         143.8637  139.0133  157.5886 O.2     1  UNL1       -0.2749
      9 N         142.6980  138.7816  159.8988 N.am    1  UNL1       -0.2795
     10 C         141.5398  138.3118  160.7282 C.3     1  UNL1        0.0937
     11 C         141.5323  138.5500  162.2091 C.3     1  UNL1        0.0259
     12 C         142.6829  139.2581  162.8607 C.3     1  UNL1        0.0257
     13 C         143.8411  139.7279  162.0314 C.3     1  UNL1        0.0259
     14 C         143.8486  139.4897  160.5504 C.3     1  UNL1        0.0937
     15 C         140.4682  138.6258  157.0998 C.3     1  UNL1        0.0101
     16 C         141.5549  137.8354  157.7663 C.3     1  UNL1        0.0853
     17 C         142.6527  140.2110  168.7845 C.2     1  UNL1        0.3078
     18 O         142.9775  139.0896  169.7262 O.2     1  UNL1       -0.2516
     19 N         142.3204  141.5706  169.3237 N.am    1  UNL1       -0.1708
     20 H         142.1072  142.3067  168.7057 H       1  UNL1        0.2545
     21 C         142.3128  141.8089  170.8047 C.2     1  UNL1        0.3751
     22 N         141.8790  140.7174  171.7377 N.pl3   1  UNL1       -0.1313
     23 N         142.7391  143.1386  171.3526 N.pl3   1  UNL1       -0.2906
     24 H         141.5993  139.8447  171.3781 H       1  UNL1        0.3060
     25 H         143.0238  143.8550  170.7402 H       1  UNL1        0.2545
     26 H         142.7342  143.2950  172.3246 H       1  UNL1        0.2545
     27 C         141.4192  141.7407  163.9742 C.3     1  UNL1        0.4183
     28 F         140.7948  142.7437  163.0501 F       1  UNL1       -0.1659
     29 F         142.7358  142.4491  163.8536 F       1  UNL1       -0.1659
     30 F         140.1026  141.0323  164.0949 F       1  UNL1       -0.1659
@<TRIPOS>BOND
     1    15    16    1
     2    16     7    1
     3     7     8    2
     4     7     9   am
     5     9    10    1
     6    10    11    1
     7    11    12    1
     8    12     1    1
     9     1     2   ar
    10     2     3   ar
    11     3     4   ar
    12     4    17    1
    13    17    18    2
    14    17    19   am
    15    19    21    1
    16    21    22    2
    17    21    23    1
    18     4     5   ar
    19     5     6   ar
    20     6    27    1
    21    27    28    1
    22    27    29    1
    23    27    30    1
    24    12    13    1
    25    13    14    1
    26    14     9    1
    27     6     1   ar
    28    19    20    1
    29    22    24    1
    30    23    25    1
    31    23    26    1
@<TRIPOS>MOLECULE
*****
 30 31 0 0 0
SMALL
GASTEIGER

@<TRIPOS>ATOM
      1 C         141.0450  139.9695  164.1103 C.ar    1  UNL1       -0.0185
      2 C         141.8041  140.8479  165.0600 C.ar    1  UNL1       -0.0041
      3 C         141.4246  140.8881  166.5107 C.ar    1  UNL1        0.0057
      4 C         140.2860  140.0500  167.0115 C.ar    1  UNL1        0.0696
      5 C         139.5268  139.1716  166.0618 C.ar    1  UNL1        0.0095
      6 C         139.9063  139.1314  164.6111 C.ar    1  UNL1        0.0677
      7 C         142.5631  139.8087  158.3077 C.2     1  UNL1        0.2256
      8 O         143.5529  138.7930  157.8193 O.2     1  UNL1       -0.2749
      9 N         142.1836  139.8489  159.7584 N.am    1  UNL1       -0.2795
     10 C         141.1938  140.8646  160.2468 C.3     1  UNL1        0.0937
     11 C         140.8142  140.9048  161.6974 C.3     1  UNL1        0.0259
     12 C         141.4245  139.9293  162.6596 C.3     1  UNL1        0.0257
     13 C         142.4143  138.9136  162.1712 C.3     1  UNL1        0.0259
     14 C         142.7939  138.8734  160.7206 C.3     1  UNL1        0.0937
     15 C         142.7794  141.9051  156.7885 C.3     1  UNL1        0.0101
     16 C         141.9528  140.7841  157.3455 C.3     1  UNL1        0.0853
     17 C         139.9064  140.0902  168.4622 C.2     1  UNL1        0.3078
     18 O         138.5686  139.5739  168.9020 O.2     1  UNL1       -0.2516
     19 N         140.8648  140.6467  169.4730 N.am    1  UNL1       -0.1708
     20 H         141.7429  140.9856  169.1843 H       1  UNL1        0.2545
     21 C         140.4852  140.6870  170.9236 C.2     1  UNL1        0.3751
     22 N         140.7076  141.9367  171.7227 N.pl3   1  UNL1       -0.1313
     23 N         139.8833  139.4773  171.5752 N.pl3   1  UNL1       -0.2906
     24 H         141.1027  142.7306  171.2950 H       1  UNL1        0.3060
     25 H         139.7373  138.6570  171.0507 H       1  UNL1        0.2545
     26 H         139.6342  139.5037  172.5273 H       1  UNL1        0.2545
     27 C         139.1471  138.2530  163.6613 C.3     1  UNL1        0.4183
     28 F         138.3879  137.3746  162.7116 F       1  UNL1       -0.1659
     29 F         140.1132  137.1356  163.9224 F       1  UNL1       -0.1659
     30 F         138.1811  139.3703  163.4002 F       1  UNL1       -0.1659
@<TRIPOS>BOND
     1    15    16    1
     2    16     7    1
     3     7     8    2
     4     7     9   am
     5     9    10    1
     6    10    11    1
     7    11    12    1
     8    12     1    1
     9     1     2   ar
    10     2     3   ar
    11     3     4   ar
    12     4    17    1
    13    17    18    2
    14    17    19   am
    15    19    21    1
    16    21    22    2
    17    21    23    1
    18     4     5   ar
    19     5     6   ar
    20     6    27    1
    21    27    28    1
    22    27    29    1
    23    27    30    1
    24    12    13    1
    25    13    14    1
    26    14     9    1
    27     6     1   ar
    28    19    20    1
    29    22    24    1
    30    23    25    1
    31    23    26    1
@<TRIPOS>MOLECULE
*****
 30 31 0 0 0
SMALL
GASTEIGER

@<TRIPOS>ATOM
      1 C         141.1064  139.7418  164.2576 C.ar    1  UNL1       -0.0185
      2 C         142.1796  139.8580  165.2991 C.ar    1  UNL1       -0.0041
      3 C         141.8097  140.0794  166.7358 C.ar    1  UNL1        0.0057
      4 C         140.3666  140.1845  167.1311 C.ar    1  UNL1        0.0696
      5 C         139.2933  140.0682  166.0897 C.ar    1  UNL1        0.0095
      6 C         139.6632  139.8469  164.6529 C.ar    1  UNL1        0.0677
      7 C         142.5859  138.8563  158.5107 C.2     1  UNL1        0.2256
      8 O         142.8351  140.0303  157.6110 O.2     1  UNL1       -0.2749
      9 N         142.2160  139.0777  159.9475 N.am    1  UNL1       -0.2795
     10 C         141.9669  137.9037  160.8472 C.3     1  UNL1        0.0937
     11 C         141.5970  138.1251  162.2840 C.3     1  UNL1        0.0259
     12 C         141.4763  139.5204  162.8209 C.3     1  UNL1        0.0257
     13 C         141.7254  140.6944  161.9212 C.3     1  UNL1        0.0259
     14 C         142.0953  140.4730  160.4844 C.3     1  UNL1        0.0937
     15 C         141.7971  136.9992  156.8740 C.3     1  UNL1        0.0101
     16 C         142.7067  137.4610  157.9738 C.3     1  UNL1        0.0853
     17 C         139.9967  140.4059  168.5678 C.2     1  UNL1        0.3078
     18 O         138.8822  139.6147  169.1858 O.2     1  UNL1       -0.2516
     19 N         140.7413  141.4183  169.3866 N.am    1  UNL1       -0.1708
     20 H         141.4728  141.9376  168.9810 H       1  UNL1        0.2545
     21 C         140.3714  141.6397  170.8233 C.2     1  UNL1        0.3751
     22 N         140.6513  140.5753  171.8424 N.pl3   1  UNL1       -0.1313
     23 N         139.7215  142.9256  171.2409 N.pl3   1  UNL1       -0.2906
     24 H         141.0778  139.7314  171.5683 H       1  UNL1        0.3060
     25 H         139.5378  143.6242  170.5720 H       1  UNL1        0.2545
     26 H         139.4787  143.0709  172.1838 H       1  UNL1        0.2545
     27 C         138.5899  139.7306  163.6115 C.3     1  UNL1        0.4183
     28 F         137.5167  139.6143  162.5701 F       1  UNL1       -0.1659
     29 F         138.6544  141.2112  163.3797 F       1  UNL1       -0.1659
     30 F         138.5254  138.2501  163.8433 F       1  UNL1       -0.1659
@<TRIPOS>BOND
     1    15    16    1
     2    16     7    1
     3     7     8    2
     4     7     9   am
     5     9    10    1
     6    10    11    1
     7    11    12    1
     8    12     1    1
     9     1     2   ar
    10     2     3   ar
    11     3     4   ar
    12     4    17    1
    13    17    18    2
    14    17    19   am
    15    19    21    1
    16    21    22    2
    17    21    23    1
    18     4     5   ar
    19     5     6   ar
    20     6    27    1
    21    27    28    1
    22    27    29    1
    23    27    30    1
    24    12    13    1
    25    13    14    1
    26    14     9    1
    27     6     1   ar
    28    19    20    1
    29    22    24    1
    30    23    25    1
    31    23    26    1
