@<TRIPOS>MOLECULE
*****
 42 45 0 0 0
SMALL
GASTEIGER

@<TRIPOS>ATOM
      1 C         142.9973  140.1860  159.1212 C.ar    1  UNL1        0.0597
      2 C         143.7542  140.0304  160.4068 C.ar    1  UNL1        0.0422
      3 C         144.2542  141.2431  161.1343 C.ar    1  UNL1        0.1485
      4 C         143.9972  142.6115  160.5762 C.ar    1  UNL1        0.0743
      5 C         143.2402  142.7671  159.2906 C.ar    1  UNL1        0.1416
      6 C         142.7403  141.5544  158.5631 C.ar    1  UNL1        0.0416
      7 N         143.4078  138.2286  157.4629 N.am    1  UNL1       -0.2644
      8 C         142.4973  138.9732  158.3937 C.2     1  UNL1        0.2508
      9 O         141.0868  138.5051  158.5971 O.2     1  UNL1       -0.2698
     10 H         144.3335  138.5358  157.3294 H       1  UNL1        0.1566
     11 N         142.4087  134.7111  156.1609 N.ar    1  UNL1       -0.2357
     12 C         141.8680  135.5881  155.0706 C.ar    1  UNL1        0.0988
     13 C         142.1765  137.0125  155.4257 C.ar    1  UNL1        0.0565
     14 C         142.9078  137.0158  156.7353 C.ar    1  UNL1        0.1557
     15 N         143.0512  135.5935  157.1897 N.ar    1  UNL1       -0.1534
     16 C         142.3219  133.2146  156.2132 C.3     1  UNL1        0.2423
     17 P         142.9518  132.3885  155.1311 P.3     1  UNL1        0.3677
     18 O         143.5815  131.5624  154.0490 O.2     1  UNL1       -0.2557
     19 O         144.3121  132.7223  155.6679 O.3     1  UNL1       -0.2928
     20 C         145.4008  132.1340  157.9523 C.3     1  UNL1        0.0352
     21 C         145.0299  131.7458  156.5517 C.3     1  UNL1        0.1515
     22 O         141.5914  132.0548  154.5943 O.3     1  UNL1       -0.2928
     23 C         141.1958  130.6221  154.3919 C.3     1  UNL1        0.1515
     24 C         139.8038  130.1740  154.7258 C.3     1  UNL1        0.0352
     25 O         145.0112  141.0875  162.4199 O.3     1  UNL1       -0.4534
     26 C         144.2684  140.9056  163.7103 C.ar    1  UNL1        0.1454
     27 C         143.9282  139.5263  164.1919 C.ar    1  UNL1        0.0389
     28 C         143.1854  139.3444  165.4823 C.ar    1  UNL1        0.0230
     29 C         142.7828  140.5418  166.2911 C.ar    1  UNL1        0.1224
     30 C         143.1230  141.9210  165.8096 C.ar    1  UNL1        0.0230
     31 C         143.8658  142.1029  164.5192 C.ar    1  UNL1        0.0389
     32 S         142.0400  140.3599  167.5815 S.O2    1  UNL1        0.0633
     33 O         143.0428  139.3314  168.0138 O.2     1  UNL1       -0.1528
     34 O         141.0373  141.3883  167.1493 O.2     1  UNL1       -0.1528
     35 N         141.2972  140.1779  168.8720 N.3     1  UNL1       -0.1554
     36 C         141.6761  139.7746  170.2662 C.3     1  UNL1        0.0973
     37 C         140.2467  139.9207  170.6969 C.3     1  UNL1        0.0383
     38 C         139.8679  140.3240  169.3027 C.3     1  UNL1        0.0973
     39 O         142.9832  144.1355  158.7325 O.3     1  UNL1       -0.4791
     40 C         141.6554  144.7978  158.9521 C.3     1  UNL1        0.1661
     41 C         140.9221  145.4098  157.7955 C.3     1  UNL1        0.0472
     42 C         141.0608  144.8482  160.3284 C.3     1  UNL1        0.0472
@<TRIPOS>BOND
     1    20    21    1
     2    21    19    1
     3    19    17    1
     4    17    18    2
     5    17    16    1
     6    16    11    1
     7    11    12   ar
     8    12    13   ar
     9    13    14   ar
    10    14     7    1
    11     7     8   am
    12     8     9    2
    13     8     1    1
    14     1     2   ar
    15     2     3   ar
    16     3    25    1
    17    25    26    1
    18    26    27   ar
    19    27    28   ar
    20    28    29   ar
    21    29    32    1
    22    32    33    2
    23    32    34    2
    24    32    35    1
    25    35    36    1
    26    36    37    1
    27    37    38    1
    28    29    30   ar
    29    30    31   ar
    30     3     4   ar
    31     4     5   ar
    32     5    39    1
    33    39    40    1
    34    40    41    1
    35    40    42    1
    36     5     6   ar
    37    14    15   ar
    38    17    22    1
    39    22    23    1
    40    23    24    1
    41    15    11   ar
    42     6     1   ar
    43    31    26   ar
    44    38    35    1
    45     7    10    1
@<TRIPOS>MOLECULE
*****
 42 45 0 0 0
SMALL
GASTEIGER

@<TRIPOS>ATOM
      1 C         143.3028  139.8819  159.3498 C.ar    1  UNL1        0.0597
      2 C         144.0125  139.8548  160.6710 C.ar    1  UNL1        0.0422
      3 C         144.5355  141.1277  161.2676 C.ar    1  UNL1        0.1485
      4 C         144.3489  142.4278  160.5431 C.ar    1  UNL1        0.0743
      5 C         143.6392  142.4549  159.2219 C.ar    1  UNL1        0.1416
      6 C         143.1161  141.1820  158.6253 C.ar    1  UNL1        0.0416
      7 N         143.3362  138.1053  157.4544 N.am    1  UNL1       -0.2644
      8 C         142.7797  138.6090  158.7531 C.2     1  UNL1        0.2508
      9 O         141.7001  137.8397  159.4551 O.2     1  UNL1       -0.2698
     10 H         144.0448  138.6101  156.9937 H       1  UNL1        0.1566
     11 N         142.4549  134.4772  156.3932 N.ar    1  UNL1       -0.2357
     12 C         141.5614  135.2698  155.4857 C.ar    1  UNL1        0.0988
     13 C         141.7828  136.7254  155.7728 C.ar    1  UNL1        0.0565
     14 C         142.8131  136.8323  156.8577 C.ar    1  UNL1        0.1557
     15 N         143.2285  135.4429  157.2411 N.ar    1  UNL1       -0.1534
     16 C         142.5569  132.9816  156.4438 C.3     1  UNL1        0.2423
     17 P         143.8489  132.3056  156.0918 P.3     1  UNL1        0.3677
     18 O         145.1408  131.6295  155.7399 O.2     1  UNL1       -0.2557
     19 O         143.5574  132.5072  154.6343 O.3     1  UNL1       -0.2928
     20 C         142.6526  131.4779  152.4271 C.3     1  UNL1        0.0352
     21 C         143.3678  131.3209  153.7362 C.3     1  UNL1        0.1515
     22 O         144.1403  132.1039  157.5494 O.3     1  UNL1       -0.2928
     23 C         144.8202  130.8492  158.0117 C.3     1  UNL1        0.1515
     24 C         144.0090  129.6240  158.3128 C.3     1  UNL1        0.0352
     25 O         145.2453  141.1006  162.5889 O.3     1  UNL1       -0.4534
     26 C         144.4625  140.9323  163.8574 C.ar    1  UNL1        0.1454
     27 C         144.0126  142.1389  164.6267 C.ar    1  UNL1        0.0389
     28 C         143.2299  141.9706  165.8952 C.ar    1  UNL1        0.0230
     29 C         142.8971  140.5957  166.3943 C.ar    1  UNL1        0.1224
     30 C         143.3470  139.3892  165.6250 C.ar    1  UNL1        0.0230
     31 C         144.1297  139.5575  164.3565 C.ar    1  UNL1        0.0389
     32 S         142.1143  140.4275  167.6628 S.O2    1  UNL1        0.0633
     33 O         142.9998  139.2827  168.0573 O.2     1  UNL1       -0.1528
     34 O         141.2289  141.5722  167.2683 O.2     1  UNL1       -0.1528
     35 N         141.3316  140.2592  168.9312 N.3     1  UNL1       -0.1554
     36 C         141.6805  139.9898  170.3651 C.3     1  UNL1        0.0973
     37 C         140.2247  140.0212  170.7251 C.3     1  UNL1        0.0383
     38 C         139.8759  140.2905  169.2914 C.3     1  UNL1        0.0973
     39 O         143.4525  143.7550  158.4974 O.3     1  UNL1       -0.4791
     40 C         142.1230  144.4486  158.5317 C.3     1  UNL1        0.1661
     41 C         141.3944  144.6095  159.8330 C.3     1  UNL1        0.0472
     42 C         141.5220  144.9814  157.2648 C.3     1  UNL1        0.0472
@<TRIPOS>BOND
     1    20    21    1
     2    21    19    1
     3    19    17    1
     4    17    18    2
     5    17    16    1
     6    16    11    1
     7    11    12   ar
     8    12    13   ar
     9    13    14   ar
    10    14     7    1
    11     7     8   am
    12     8     9    2
    13     8     1    1
    14     1     2   ar
    15     2     3   ar
    16     3    25    1
    17    25    26    1
    18    26    27   ar
    19    27    28   ar
    20    28    29   ar
    21    29    32    1
    22    32    33    2
    23    32    34    2
    24    32    35    1
    25    35    36    1
    26    36    37    1
    27    37    38    1
    28    29    30   ar
    29    30    31   ar
    30     3     4   ar
    31     4     5   ar
    32     5    39    1
    33    39    40    1
    34    40    41    1
    35    40    42    1
    36     5     6   ar
    37    14    15   ar
    38    17    22    1
    39    22    23    1
    40    23    24    1
    41    15    11   ar
    42     6     1   ar
    43    31    26   ar
    44    38    35    1
    45     7    10    1
@<TRIPOS>MOLECULE
*****
 42 45 0 0 0
SMALL
GASTEIGER

@<TRIPOS>ATOM
      1 C         138.8328  139.9008  158.4773 C.ar    1  UNL1        0.0597
      2 C         139.7387  139.1870  157.5184 C.ar    1  UNL1        0.0422
      3 C         139.4969  139.2882  156.0415 C.ar    1  UNL1        0.1485
      4 C         138.3491  140.1033  155.5236 C.ar    1  UNL1        0.0743
      5 C         137.4432  140.8172  156.4825 C.ar    1  UNL1        0.1416
      6 C         137.6850  140.7159  157.9594 C.ar    1  UNL1        0.0416
      7 N         138.1758  138.9522  160.8051 N.am    1  UNL1       -0.2644
      8 C         139.0746  139.7996  159.9543 C.2     1  UNL1        0.2508
      9 O         140.2153  140.5459  160.5804 O.2     1  UNL1       -0.2698
     10 H         137.4272  138.4624  160.3942 H       1  UNL1        0.1566
     11 N         138.6539  139.4292  164.6274 N.ar    1  UNL1       -0.2357
     12 C         138.9257  137.9611  164.4822 C.ar    1  UNL1        0.0988
     13 C         138.7797  137.6038  163.0327 C.ar    1  UNL1        0.0565
     14 C         138.4177  138.8510  162.2821 C.ar    1  UNL1        0.1557
     15 N         138.3399  139.9791  163.2676 N.ar    1  UNL1       -0.1534
     16 C         138.6897  140.2101  165.9074 C.3     1  UNL1        0.2423
     17 P         139.8655  141.0884  166.2176 P.3     1  UNL1        0.3677
     18 O         141.0412  141.9667  166.5278 O.2     1  UNL1       -0.2557
     19 O         140.5483  139.9360  166.8927 O.3     1  UNL1       -0.2928
     20 C         142.4916  138.6083  165.7925 C.3     1  UNL1        0.0352
     21 C         142.0177  139.7121  166.6908 C.3     1  UNL1        0.1515
     22 O         139.1827  142.2408  165.5425 O.3     1  UNL1       -0.2928
     23 C         139.6495  143.6433  165.7978 C.3     1  UNL1        0.1515
     24 C         138.9001  144.8019  165.2098 C.3     1  UNL1        0.0352
     25 O         140.4028  138.5743  155.0824 O.3     1  UNL1       -0.4534
     26 C         141.0521  137.2831  155.4839 C.ar    1  UNL1        0.1454
     27 C         140.5729  135.9884  154.8971 C.ar    1  UNL1        0.0389
     28 C         141.2222  134.6972  155.2985 C.ar    1  UNL1        0.0230
     29 C         142.3507  134.7007  156.2867 C.ar    1  UNL1        0.1224
     30 C         142.8299  135.9953  156.8735 C.ar    1  UNL1        0.0230
     31 C         142.1806  137.2865  156.4720 C.ar    1  UNL1        0.0389
     32 S         143.0000  133.4094  156.6882 S.O2    1  UNL1        0.0633
     33 O         141.8316  132.6495  156.1337 O.2     1  UNL1       -0.1528
     34 O         144.1683  134.1693  157.2427 O.2     1  UNL1       -0.1528
     35 N         143.6493  132.1182  157.0896 N.3     1  UNL1       -0.1554
     36 C         144.9342  131.7425  157.7664 C.3     1  UNL1        0.0973
     37 C         144.5675  130.2922  157.6574 C.3     1  UNL1        0.0383
     38 C         143.2827  130.6678  156.9807 C.3     1  UNL1        0.0973
     39 O         136.2954  141.6323  155.9646 O.3     1  UNL1       -0.4791
     40 C         135.1047  140.9507  155.3585 C.3     1  UNL1        0.1661
     41 C         134.9134  140.9572  153.8708 C.3     1  UNL1        0.0472
     42 C         134.1051  140.2624  156.2401 C.3     1  UNL1        0.0472
@<TRIPOS>BOND
     1    20    21    1
     2    21    19    1
     3    19    17    1
     4    17    18    2
     5    17    16    1
     6    16    11    1
     7    11    12   ar
     8    12    13   ar
     9    13    14   ar
    10    14     7    1
    11     7     8   am
    12     8     9    2
    13     8     1    1
    14     1     2   ar
    15     2     3   ar
    16     3    25    1
    17    25    26    1
    18    26    27   ar
    19    27    28   ar
    20    28    29   ar
    21    29    32    1
    22    32    33    2
    23    32    34    2
    24    32    35    1
    25    35    36    1
    26    36    37    1
    27    37    38    1
    28    29    30   ar
    29    30    31   ar
    30     3     4   ar
    31     4     5   ar
    32     5    39    1
    33    39    40    1
    34    40    41    1
    35    40    42    1
    36     5     6   ar
    37    14    15   ar
    38    17    22    1
    39    22    23    1
    40    23    24    1
    41    15    11   ar
    42     6     1   ar
    43    31    26   ar
    44    38    35    1
    45     7    10    1
@<TRIPOS>MOLECULE
*****
 42 45 0 0 0
SMALL
GASTEIGER

@<TRIPOS>ATOM
      1 C         138.9107  139.8762  158.6161 C.ar    1  UNL1        0.0597
      2 C         139.8256  139.1799  157.6529 C.ar    1  UNL1        0.0422
      3 C         139.5847  139.2902  156.1765 C.ar    1  UNL1        0.1485
      4 C         138.4287  140.0967  155.6634 C.ar    1  UNL1        0.0743
      5 C         137.5137  140.7930  156.6267 C.ar    1  UNL1        0.1416
      6 C         137.7547  140.6827  158.1030 C.ar    1  UNL1        0.0416
      7 N         138.2613  138.9017  160.9353 N.am    1  UNL1       -0.2644
      8 C         139.1516  139.7660  160.0926 C.2     1  UNL1        0.2508
      9 O         140.2829  140.5200  160.7262 O.2     1  UNL1       -0.2698
     10 H         137.5187  138.4068  160.5195 H       1  UNL1        0.1566
     11 N         138.7103  139.3495  164.7646 N.ar    1  UNL1       -0.2357
     12 C         139.0356  137.8941  164.6029 C.ar    1  UNL1        0.0988
     13 C         138.9070  137.5492  163.1487 C.ar    1  UNL1        0.0565
     14 C         138.5022  138.7915  162.4118 C.ar    1  UNL1        0.1557
     15 N         138.3807  139.9041  163.4105 N.ar    1  UNL1       -0.1534
     16 C         138.7141  140.1157  166.0541 C.3     1  UNL1        0.2423
     17 P         139.8552  141.0340  166.3777 P.3     1  UNL1        0.3677
     18 O         140.9963  141.9522  166.7013 O.2     1  UNL1       -0.2557
     19 O         139.1376  142.1642  165.7012 O.3     1  UNL1       -0.2928
     20 C         139.1219  144.6942  165.1105 C.3     1  UNL1        0.0352
     21 C         139.8779  143.4217  165.3539 C.3     1  UNL1        0.1515
     22 O         140.5728  139.9037  167.0542 O.3     1  UNL1       -0.2928
     23 C         142.0278  139.6664  166.7773 C.3     1  UNL1        0.1515
     24 C         142.4406  138.6485  165.7559 C.3     1  UNL1        0.0352
     25 O         140.4997  138.5939  155.2131 O.3     1  UNL1       -0.4534
     26 C         141.1314  137.2867  155.5902 C.ar    1  UNL1        0.1454
     27 C         140.6020  136.0051  155.0178 C.ar    1  UNL1        0.0389
     28 C         141.2338  134.6979  155.3949 C.ar    1  UNL1        0.0230
     29 C         142.3949  134.6723  156.3443 C.ar    1  UNL1        0.1224
     30 C         142.9242  135.9538  156.9166 C.ar    1  UNL1        0.0230
     31 C         142.2925  137.2610  156.5395 C.ar    1  UNL1        0.0389
     32 S         143.0266  133.3651  156.7213 S.O2    1  UNL1        0.0633
     33 O         144.1925  134.0995  157.3142 O.2     1  UNL1       -0.1528
     34 O         141.8608  132.6307  156.1285 O.2     1  UNL1       -0.1528
     35 N         143.6584  132.0579  157.0984 N.3     1  UNL1       -0.1554
     36 C         143.2471  130.6178  157.0144 C.3     1  UNL1        0.0973
     37 C         144.5518  130.2093  157.6316 C.3     1  UNL1        0.0383
     38 C         144.9630  131.6493  157.7156 C.3     1  UNL1        0.0973
     39 O         136.3578  141.5995  156.1136 O.3     1  UNL1       -0.4791
     40 C         135.1640  140.9085  155.5242 C.3     1  UNL1        0.1661
     41 C         134.1738  140.2263  156.4208 C.3     1  UNL1        0.0472
     42 C         134.9605  140.8997  154.0380 C.3     1  UNL1        0.0472
@<TRIPOS>BOND
     1    20    21    1
     2    21    19    1
     3    19    17    1
     4    17    18    2
     5    17    16    1
     6    16    11    1
     7    11    12   ar
     8    12    13   ar
     9    13    14   ar
    10    14     7    1
    11     7     8   am
    12     8     9    2
    13     8     1    1
    14     1     2   ar
    15     2     3   ar
    16     3    25    1
    17    25    26    1
    18    26    27   ar
    19    27    28   ar
    20    28    29   ar
    21    29    32    1
    22    32    33    2
    23    32    34    2
    24    32    35    1
    25    35    36    1
    26    36    37    1
    27    37    38    1
    28    29    30   ar
    29    30    31   ar
    30     3     4   ar
    31     4     5   ar
    32     5    39    1
    33    39    40    1
    34    40    41    1
    35    40    42    1
    36     5     6   ar
    37    14    15   ar
    38    17    22    1
    39    22    23    1
    40    23    24    1
    41    15    11   ar
    42     6     1   ar
    43    31    26   ar
    44    38    35    1
    45     7    10    1
@<TRIPOS>MOLECULE
*****
 42 45 0 0 0
SMALL
GASTEIGER

@<TRIPOS>ATOM
      1 C         142.6680  141.3388  158.8157 C.ar    1  UNL1        0.0597
      2 C         143.2130  141.9820  160.0563 C.ar    1  UNL1        0.0422
      3 C         142.7698  143.3620  160.4423 C.ar    1  UNL1        0.1485
      4 C         141.7815  144.0989  159.5877 C.ar    1  UNL1        0.0743
      5 C         141.2364  143.4557  158.3471 C.ar    1  UNL1        0.1416
      6 C         141.6797  142.0757  157.9611 C.ar    1  UNL1        0.0416
      7 N         142.5860  139.3257  157.1753 N.am    1  UNL1       -0.2644
      8 C         143.1113  139.9588  158.4296 C.2     1  UNL1        0.2508
      9 O         144.0798  139.2118  159.2979 O.2     1  UNL1       -0.2698
     10 H         141.9502  139.8160  156.6055 H       1  UNL1        0.1566
     11 N         143.3354  135.5380  156.7787 N.ar    1  UNL1       -0.2357
     12 C         144.0873  136.1060  155.6115 C.ar    1  UNL1        0.0988
     13 C         143.8980  137.5941  155.6181 C.ar    1  UNL1        0.0565
     14 C         143.0292  137.9456  156.7893 C.ar    1  UNL1        0.1557
     15 N         142.6815  136.6750  157.5065 N.ar    1  UNL1       -0.1534
     16 C         143.2521  134.0878  157.1523 C.3     1  UNL1        0.2423
     17 P         143.2658  133.0357  156.0832 P.3     1  UNL1        0.3677
     18 O         143.2796  131.9837  155.0141 O.2     1  UNL1       -0.2557
     19 O         141.8369  133.3517  155.7538 O.3     1  UNL1       -0.2928
     20 C         141.5737  134.5962  153.4885 C.3     1  UNL1        0.0352
     21 C         141.3822  133.3656  154.3245 C.3     1  UNL1        0.1515
     22 O         144.6947  132.7198  156.4126 O.3     1  UNL1       -0.2928
     23 C         145.0441  132.1307  157.7471 C.3     1  UNL1        0.1515
     24 C         144.7825  130.6787  158.0177 C.3     1  UNL1        0.0352
     25 O         143.3148  144.0053  161.6830 O.3     1  UNL1       -0.4534
     26 C         142.8313  143.5621  163.0320 C.ar    1  UNL1        0.1454
     27 C         141.4165  143.8356  163.4487 C.ar    1  UNL1        0.0389
     28 C         140.9330  143.3924  164.7977 C.ar    1  UNL1        0.0230
     29 C         141.8643  142.6755  165.7299 C.ar    1  UNL1        0.1224
     30 C         143.2790  142.4020  165.3131 C.ar    1  UNL1        0.0230
     31 C         143.7625  142.8453  163.9642 C.ar    1  UNL1        0.0389
     32 S         141.3808  142.2323  167.0789 S.O2    1  UNL1        0.0633
     33 O         139.9803  142.1461  166.5486 O.2     1  UNL1       -0.1528
     34 O         142.7813  142.3185  167.6092 O.2     1  UNL1       -0.1528
     35 N         140.8973  141.7890  168.4279 N.3     1  UNL1       -0.1554
     36 C         140.8793  140.4873  169.1732 C.3     1  UNL1        0.0973
     37 C         140.2135  141.1622  170.3356 C.3     1  UNL1        0.0383
     38 C         140.2315  142.4638  169.5904 C.3     1  UNL1        0.0973
     39 O         140.2481  144.1925  157.4924 O.3     1  UNL1       -0.4791
     40 C         140.6689  145.4298  156.7563 C.3     1  UNL1        0.1661
     41 C         141.9840  145.4630  156.0356 C.3     1  UNL1        0.0472
     42 C         139.7745  146.6339  156.7407 C.3     1  UNL1        0.0472
@<TRIPOS>BOND
     1    20    21    1
     2    21    19    1
     3    19    17    1
     4    17    18    2
     5    17    16    1
     6    16    11    1
     7    11    12   ar
     8    12    13   ar
     9    13    14   ar
    10    14     7    1
    11     7     8   am
    12     8     9    2
    13     8     1    1
    14     1     2   ar
    15     2     3   ar
    16     3    25    1
    17    25    26    1
    18    26    27   ar
    19    27    28   ar
    20    28    29   ar
    21    29    32    1
    22    32    33    2
    23    32    34    2
    24    32    35    1
    25    35    36    1
    26    36    37    1
    27    37    38    1
    28    29    30   ar
    29    30    31   ar
    30     3     4   ar
    31     4     5   ar
    32     5    39    1
    33    39    40    1
    34    40    41    1
    35    40    42    1
    36     5     6   ar
    37    14    15   ar
    38    17    22    1
    39    22    23    1
    40    23    24    1
    41    15    11   ar
    42     6     1   ar
    43    31    26   ar
    44    38    35    1
    45     7    10    1
@<TRIPOS>MOLECULE
*****
 42 45 0 0 0
SMALL
GASTEIGER

@<TRIPOS>ATOM
      1 C         137.7159  141.7759  157.3244 C.ar    1  UNL1        0.0597
      2 C         136.6442  141.0125  156.6043 C.ar    1  UNL1        0.0422
      3 C         135.9342  141.6350  155.4388 C.ar    1  UNL1        0.1485
      4 C         136.2959  143.0209  154.9934 C.ar    1  UNL1        0.0743
      5 C         137.3677  143.7843  155.7135 C.ar    1  UNL1        0.1416
      6 C         138.0776  143.1618  156.8790 C.ar    1  UNL1        0.0416
      7 N         138.0659  139.7666  158.9338 N.am    1  UNL1       -0.2644
      8 C         138.4259  141.1534  158.4899 C.2     1  UNL1        0.2508
      9 O         139.4960  141.9177  159.2115 O.2     1  UNL1       -0.2698
     10 H         137.3635  139.2649  158.4602 H       1  UNL1        0.1566
     11 N         139.2280  138.1863  162.2831 N.ar    1  UNL1       -0.2357
     12 C         140.5090  138.1860  161.5026 C.ar    1  UNL1        0.0988
     13 C         140.2295  138.7779  160.1528 C.ar    1  UNL1        0.0565
     14 C         138.7759  139.1440  160.0993 C.ar    1  UNL1        0.1557
     15 N         138.1570  138.7784  161.4158 N.ar    1  UNL1       -0.1534
     16 C         139.0496  137.6829  163.6847 C.3     1  UNL1        0.2423
     17 P         139.5175  138.5112  164.8445 P.3     1  UNL1        0.3677
     18 O         139.9854  139.3394  166.0042 O.2     1  UNL1       -0.2557
     19 O         138.2677  139.3364  164.7595 O.3     1  UNL1       -0.2928
     20 C         137.6826  141.6202  163.6679 C.3     1  UNL1        0.0352
     21 C         138.3567  140.8337  164.7528 C.3     1  UNL1        0.1515
     22 O         140.7672  137.6859  164.9295 O.3     1  UNL1       -0.2928
     23 C         142.0738  138.3369  165.2749 C.3     1  UNL1        0.1515
     24 C         143.0078  138.7694  164.1838 C.3     1  UNL1        0.0352
     25 O         134.8624  140.8716  154.7186 O.3     1  UNL1       -0.4534
     26 C         133.6141  140.4658  155.4445 C.ar    1  UNL1        0.1454
     27 C         133.5920  139.1997  156.2487 C.ar    1  UNL1        0.0389
     28 C         132.3437  138.7939  156.9746 C.ar    1  UNL1        0.0230
     29 C         131.1173  139.6542  156.8963 C.ar    1  UNL1        0.1224
     30 C         131.1394  140.9202  156.0922 C.ar    1  UNL1        0.0230
     31 C         132.3878  141.3260  155.3663 C.ar    1  UNL1        0.0389
     32 S         129.8690  139.2484  157.6222 S.O2    1  UNL1        0.0633
     33 O         130.6739  138.3295  158.4928 O.2     1  UNL1       -0.1528
     34 O         129.0641  140.1672  156.7516 O.2     1  UNL1       -0.1528
     35 N         128.6206  138.8425  158.3481 N.3     1  UNL1       -0.1554
     36 C         128.1121  138.9956  159.7510 C.3     1  UNL1        0.0973
     37 C         126.8552  138.2687  159.3747 C.3     1  UNL1        0.0383
     38 C         127.3636  138.1156  157.9719 C.3     1  UNL1        0.0973
     39 O         137.7294  145.1702  155.2682 O.3     1  UNL1       -0.4791
     40 C         139.1710  145.5646  155.1403 C.3     1  UNL1        0.1661
     41 C         140.0544  144.8667  154.1491 C.3     1  UNL1        0.0472
     42 C         139.7291  146.6570  156.0037 C.3     1  UNL1        0.0472
@<TRIPOS>BOND
     1    20    21    1
     2    21    19    1
     3    19    17    1
     4    17    18    2
     5    17    16    1
     6    16    11    1
     7    11    12   ar
     8    12    13   ar
     9    13    14   ar
    10    14     7    1
    11     7     8   am
    12     8     9    2
    13     8     1    1
    14     1     2   ar
    15     2     3   ar
    16     3    25    1
    17    25    26    1
    18    26    27   ar
    19    27    28   ar
    20    28    29   ar
    21    29    32    1
    22    32    33    2
    23    32    34    2
    24    32    35    1
    25    35    36    1
    26    36    37    1
    27    37    38    1
    28    29    30   ar
    29    30    31   ar
    30     3     4   ar
    31     4     5   ar
    32     5    39    1
    33    39    40    1
    34    40    41    1
    35    40    42    1
    36     5     6   ar
    37    14    15   ar
    38    17    22    1
    39    22    23    1
    40    23    24    1
    41    15    11   ar
    42     6     1   ar
    43    31    26   ar
    44    38    35    1
    45     7    10    1
@<TRIPOS>MOLECULE
*****
 42 45 0 0 0
SMALL
GASTEIGER

@<TRIPOS>ATOM
      1 C         137.5896  142.2447  157.2552 C.ar    1  UNL1        0.0597
      2 C         136.5753  141.3745  156.5741 C.ar    1  UNL1        0.0422
      3 C         135.9548  141.8165  155.2819 C.ar    1  UNL1        0.1485
      4 C         136.3487  143.1286  154.6710 C.ar    1  UNL1        0.0743
      5 C         137.3630  143.9987  155.3521 C.ar    1  UNL1        0.1416
      6 C         137.9834  143.5567  156.6443 C.ar    1  UNL1        0.0416
      7 N         138.2718  142.7469  159.7113 N.am    1  UNL1       -0.2644
      8 C         138.2101  141.8027  158.5474 C.2     1  UNL1        0.2508
      9 O         138.7688  140.4166  158.6757 O.2     1  UNL1       -0.2698
     10 H         137.9051  143.6566  159.6272 H       1  UNL1        0.1566
     11 N         139.1790  141.3803  163.2292 N.ar    1  UNL1       -0.2357
     12 C         140.5154  141.8694  162.7547 C.ar    1  UNL1        0.0988
     13 C         140.3382  142.4409  161.3791 C.ar    1  UNL1        0.0565
     14 C         138.8923  142.3049  161.0036 C.ar    1  UNL1        0.1557
     15 N         138.1760  141.6495  162.1469 N.ar    1  UNL1       -0.1534
     16 C         138.8956  140.7354  164.5534 C.3     1  UNL1        0.2423
     17 P         139.4925  139.3985  164.8796 P.3     1  UNL1        0.3677
     18 O         140.0894  138.0616  165.2059 O.2     1  UNL1       -0.2557
     19 O         138.5046  138.7346  163.9668 O.3     1  UNL1       -0.2928
     20 C         139.0101  138.1509  161.4861 C.3     1  UNL1        0.0352
     21 C         138.9784  137.7565  162.9330 C.3     1  UNL1        0.1515
     22 O         140.4804  140.0624  165.7925 O.3     1  UNL1       -0.2928
     23 C         140.0032  140.7739  167.0238 C.3     1  UNL1        0.1515
     24 C         139.4979  139.9868  168.1964 C.3     1  UNL1        0.0352
     25 O         134.9405  140.9463  154.6007 O.3     1  UNL1       -0.4534
     26 C         133.7120  140.5065  155.3404 C.ar    1  UNL1        0.1454
     27 C         133.7159  139.2117  156.0980 C.ar    1  UNL1        0.0389
     28 C         132.4874  138.7719  156.8377 C.ar    1  UNL1        0.0230
     29 C         131.2549  139.6267  156.8199 C.ar    1  UNL1        0.1224
     30 C         131.2509  140.9213  156.0624 C.ar    1  UNL1        0.0230
     31 C         132.4795  141.3612  155.3227 C.ar    1  UNL1        0.0389
     32 S         130.0264  139.1868  157.5596 S.O2    1  UNL1        0.0633
     33 O         129.1804  140.0412  156.6628 O.2     1  UNL1       -0.1528
     34 O         130.8723  138.3324  158.4565 O.2     1  UNL1       -0.1528
     35 N         128.7978  138.7469  158.2994 N.3     1  UNL1       -0.1554
     36 C         127.8082  139.4176  159.2054 C.3     1  UNL1        0.0973
     37 C         127.0604  138.1248  159.3455 C.3     1  UNL1        0.0383
     38 C         128.0500  137.4542  158.4396 C.3     1  UNL1        0.0973
     39 O         137.7568  145.3108  154.7411 O.3     1  UNL1       -0.4791
     40 C         139.0829  145.9264  155.0767 C.3     1  UNL1        0.1661
     41 C         140.3374  145.3922  154.4517 C.3     1  UNL1        0.0472
     42 C         139.1544  147.0763  156.0372 C.3     1  UNL1        0.0472
@<TRIPOS>BOND
     1    20    21    1
     2    21    19    1
     3    19    17    1
     4    17    18    2
     5    17    16    1
     6    16    11    1
     7    11    12   ar
     8    12    13   ar
     9    13    14   ar
    10    14     7    1
    11     7     8   am
    12     8     9    2
    13     8     1    1
    14     1     2   ar
    15     2     3   ar
    16     3    25    1
    17    25    26    1
    18    26    27   ar
    19    27    28   ar
    20    28    29   ar
    21    29    32    1
    22    32    33    2
    23    32    34    2
    24    32    35    1
    25    35    36    1
    26    36    37    1
    27    37    38    1
    28    29    30   ar
    29    30    31   ar
    30     3     4   ar
    31     4     5   ar
    32     5    39    1
    33    39    40    1
    34    40    41    1
    35    40    42    1
    36     5     6   ar
    37    14    15   ar
    38    17    22    1
    39    22    23    1
    40    23    24    1
    41    15    11   ar
    42     6     1   ar
    43    31    26   ar
    44    38    35    1
    45     7    10    1
@<TRIPOS>MOLECULE
*****
 42 45 0 0 0
SMALL
GASTEIGER

@<TRIPOS>ATOM
      1 C         141.7787  138.5549  158.8288 C.ar    1  UNL1        0.0597
      2 C         141.0221  139.4667  157.9090 C.ar    1  UNL1        0.0422
      3 C         141.1327  139.2934  156.4232 C.ar    1  UNL1        0.1485
      4 C         141.9999  138.2082  155.8572 C.ar    1  UNL1        0.0743
      5 C         142.7565  137.2964  156.7770 C.ar    1  UNL1        0.1416
      6 C         142.6459  137.4697  158.2628 C.ar    1  UNL1        0.0416
      7 N         142.1421  137.6417  161.2339 N.am    1  UNL1       -0.2644
      8 C         141.6682  138.7282  160.3147 C.2     1  UNL1        0.2508
      9 O         141.0836  139.9880  160.8814 O.2     1  UNL1       -0.2698
     10 H         142.5258  136.8148  160.8619 H       1  UNL1        0.1566
     11 N         142.4591  138.5346  164.9979 N.ar    1  UNL1       -0.2357
     12 C         141.2636  137.6286  165.0146 C.ar    1  UNL1        0.0988
     13 C         140.9994  137.1839  163.6065 C.ar    1  UNL1        0.0565
     14 C         142.0315  137.8150  162.7198 C.ar    1  UNL1        0.1557
     15 N         142.9336  138.6497  163.5796 N.ar    1  UNL1       -0.1534
     16 C         143.0722  139.2072  166.1901 C.3     1  UNL1        0.2423
     17 P         142.5359  140.5247  166.6664 P.3     1  UNL1        0.3677
     18 O         141.9996  141.8421  167.1425 O.2     1  UNL1       -0.2557
     19 O         141.6020  139.8084  167.5962 O.3     1  UNL1       -0.2928
     20 C         139.3890  140.1569  168.9119 C.3     1  UNL1        0.0352
     21 C         140.1448  140.1639  167.6163 C.3     1  UNL1        0.1515
     22 O         143.4699  141.2409  165.7364 O.3     1  UNL1       -0.2928
     23 C         142.9441  142.3021  164.8158 C.3     1  UNL1        0.1515
     24 C         143.7708  143.5194  164.5247 C.3     1  UNL1        0.0352
     25 O         140.3761  140.2053  155.5033 O.3     1  UNL1       -0.4534
     26 C         138.8808  140.2855  155.5899 C.ar    1  UNL1        0.1454
     27 C         138.0310  139.4777  154.6543 C.ar    1  UNL1        0.0389
     28 C         136.5356  139.5579  154.7408 C.ar    1  UNL1        0.0230
     29 C         135.8901  140.4461  155.7629 C.ar    1  UNL1        0.1224
     30 C         136.7399  141.2539  156.6984 C.ar    1  UNL1        0.0230
     31 C         138.2353  141.1736  156.6119 C.ar    1  UNL1        0.0389
     32 S         134.3947  140.5264  155.8494 S.O2    1  UNL1        0.0633
     33 O         134.4378  139.8739  157.1994 O.2     1  UNL1       -0.1528
     34 O         134.3517  141.1788  154.4994 O.2     1  UNL1       -0.1528
     35 N         132.8994  140.6066  155.9360 N.3     1  UNL1       -0.1554
     36 C         131.8499  141.5060  155.3529 C.3     1  UNL1        0.0973
     37 C         130.7847  140.7202  156.0583 C.3     1  UNL1        0.0383
     38 C         131.8340  139.8209  156.6413 C.3     1  UNL1        0.0973
     39 O         143.6237  136.2112  156.2110 O.3     1  UNL1       -0.4791
     40 C         143.2130  134.7750  156.3476 C.3     1  UNL1        0.1661
     41 C         142.0946  134.2317  155.5086 C.3     1  UNL1        0.0472
     42 C         143.9207  133.8821  157.3233 C.3     1  UNL1        0.0472
@<TRIPOS>BOND
     1    20    21    1
     2    21    19    1
     3    19    17    1
     4    17    18    2
     5    17    16    1
     6    16    11    1
     7    11    12   ar
     8    12    13   ar
     9    13    14   ar
    10    14     7    1
    11     7     8   am
    12     8     9    2
    13     8     1    1
    14     1     2   ar
    15     2     3   ar
    16     3    25    1
    17    25    26    1
    18    26    27   ar
    19    27    28   ar
    20    28    29   ar
    21    29    32    1
    22    32    33    2
    23    32    34    2
    24    32    35    1
    25    35    36    1
    26    36    37    1
    27    37    38    1
    28    29    30   ar
    29    30    31   ar
    30     3     4   ar
    31     4     5   ar
    32     5    39    1
    33    39    40    1
    34    40    41    1
    35    40    42    1
    36     5     6   ar
    37    14    15   ar
    38    17    22    1
    39    22    23    1
    40    23    24    1
    41    15    11   ar
    42     6     1   ar
    43    31    26   ar
    44    38    35    1
    45     7    10    1
@<TRIPOS>MOLECULE
*****
 42 45 0 0 0
SMALL
GASTEIGER

@<TRIPOS>ATOM
      1 C         137.5648  142.2532  157.3224 C.ar    1  UNL1        0.0597
      2 C         136.5603  141.3635  156.6522 C.ar    1  UNL1        0.0422
      3 C         135.9858  141.7501  155.3216 C.ar    1  UNL1        0.1485
      4 C         136.4159  143.0264  154.6612 C.ar    1  UNL1        0.0743
      5 C         137.4205  143.9161  155.3315 C.ar    1  UNL1        0.1416
      6 C         137.9949  143.5295  156.6620 C.ar    1  UNL1        0.0416
      7 N         138.3930  140.4225  158.9695 N.am    1  UNL1       -0.2644
      8 C         138.1394  141.8666  158.6531 C.2     1  UNL1        0.2508
      9 O         138.4602  142.9242  159.6672 O.2     1  UNL1       -0.2698
     10 H         138.1824  139.7284  158.3039 H       1  UNL1        0.1566
     11 N         139.1747  139.2095  162.5727 N.ar    1  UNL1       -0.2357
     12 C         140.5286  139.6727  162.1227 C.ar    1  UNL1        0.0988
     13 C         140.4005  140.1835  160.7181 C.ar    1  UNL1        0.0565
     14 C         138.9675  140.0359  160.3002 C.ar    1  UNL1        0.1557
     15 N         138.2099  139.4340  161.4463 N.ar    1  UNL1       -0.1534
     16 C         138.8437  138.6245  163.9136 C.3     1  UNL1        0.2423
     17 P         139.0661  139.4303  165.1591 P.3     1  UNL1        0.3677
     18 O         139.2885  140.2362  166.4046 O.2     1  UNL1       -0.2557
     19 O         140.2121  138.5374  165.5323 O.3     1  UNL1       -0.2928
     20 C         142.8037  138.4288  165.3843 C.3     1  UNL1        0.0352
     21 C         141.5565  139.1296  165.8354 C.3     1  UNL1        0.1515
     22 O         137.9201  140.3233  164.7859 O.3     1  UNL1       -0.2928
     23 C         138.1402  141.7983  164.6246 C.3     1  UNL1        0.1515
     24 C         137.6656  142.4963  163.3847 C.3     1  UNL1        0.0352
     25 O         134.9812  140.8603  154.6513 O.3     1  UNL1       -0.4534
     26 C         133.7294  140.4633  155.3761 C.ar    1  UNL1        0.1454
     27 C         133.6865  139.1798  156.1513 C.ar    1  UNL1        0.0389
     28 C         132.4347  138.7828  156.8761 C.ar    1  UNL1        0.0230
     29 C         131.2257  139.6693  156.8257 C.ar    1  UNL1        0.1224
     30 C         131.2686  140.9528  156.0506 C.ar    1  UNL1        0.0230
     31 C         132.5204  141.3498  155.3258 C.ar    1  UNL1        0.0389
     32 S         129.9739  139.2723  157.5505 S.O2    1  UNL1        0.0633
     33 O         130.7719  138.3494  158.4232 O.2     1  UNL1       -0.1528
     34 O         129.1760  140.1953  156.6779 O.2     1  UNL1       -0.1528
     35 N         128.7221  138.8753  158.2753 N.3     1  UNL1       -0.1554
     36 C         128.2152  139.0284  159.6788 C.3     1  UNL1        0.0973
     37 C         126.9518  138.3139  159.3003 C.3     1  UNL1        0.0383
     38 C         127.4586  138.1609  157.8970 C.3     1  UNL1        0.0973
     39 O         137.8506  145.1924  154.6711 O.3     1  UNL1       -0.4791
     40 C         139.1262  145.8609  155.0904 C.3     1  UNL1        0.1661
     41 C         139.0852  147.0448  156.0105 C.3     1  UNL1        0.0472
     42 C         140.4429  145.3455  154.5895 C.3     1  UNL1        0.0472
@<TRIPOS>BOND
     1    20    21    1
     2    21    19    1
     3    19    17    1
     4    17    18    2
     5    17    16    1
     6    16    11    1
     7    11    12   ar
     8    12    13   ar
     9    13    14   ar
    10    14     7    1
    11     7     8   am
    12     8     9    2
    13     8     1    1
    14     1     2   ar
    15     2     3   ar
    16     3    25    1
    17    25    26    1
    18    26    27   ar
    19    27    28   ar
    20    28    29   ar
    21    29    32    1
    22    32    33    2
    23    32    34    2
    24    32    35    1
    25    35    36    1
    26    36    37    1
    27    37    38    1
    28    29    30   ar
    29    30    31   ar
    30     3     4   ar
    31     4     5   ar
    32     5    39    1
    33    39    40    1
    34    40    41    1
    35    40    42    1
    36     5     6   ar
    37    14    15   ar
    38    17    22    1
    39    22    23    1
    40    23    24    1
    41    15    11   ar
    42     6     1   ar
    43    31    26   ar
    44    38    35    1
    45     7    10    1
