@<TRIPOS>MOLECULE
*****
 36 41 0 0 0
SMALL
GASTEIGER

@<TRIPOS>ATOM
      1 S         140.1557  144.3217  158.8686 S.3     1  UNL1       -0.0742
      2 C         139.6678  141.0484  160.8965 C.ar    1  UNL1        0.1669
      3 N         138.2447  141.4301  160.6155 N.ar    1  UNL1       -0.1282
      4 N         138.2542  142.7028  159.8216 N.ar    1  UNL1       -0.1221
      5 C         139.6833  143.1077  159.6120 C.ar    1  UNL1        0.1933
      6 N         140.5569  142.0852  160.2763 N.ar    1  UNL1       -0.2884
      7 C         142.0564  142.0973  160.3139 C.3     1  UNL1        0.1340
      8 C         137.8848  138.7368  167.1197 C.3     1  UNL1        0.0521
      9 C         138.4441  139.0131  165.7555 C.ar    1  UNL1        0.0593
     10 C         137.9898  140.2197  164.9889 C.ar    1  UNL1        0.0147
     11 C         138.5492  140.4959  163.6247 C.ar    1  UNL1        0.0028
     12 C         139.5628  139.5656  163.0272 C.ar    1  UNL1        0.0206
     13 C         140.1221  139.8418  161.6632 C.ar    1  UNL1        0.0374
     14 C         141.1357  138.9114  161.0656 C.ar    1  UNL1        0.0031
     15 C         141.5899  137.7048  161.8322 C.ar    1  UNL1        0.0016
     16 C         141.0306  137.4286  163.1964 C.ar    1  UNL1        0.0191
     17 C         140.0170  138.3590  163.7939 C.ar    1  UNL1        0.0810
     18 N         139.4577  138.0827  165.1580 N.ar    1  UNL1       -0.2497
     19 C         140.6611  145.5147  159.6248 C.3     1  UNL1        0.0824
     20 C         140.0230  145.9037  160.9253 C.3     1  UNL1        0.0843
     21 N         140.3632  145.1565  162.1807 N.3     1  UNL1       -0.2713
     22 C         139.2036  144.8142  163.0687 C.3     1  UNL1        0.0768
     23 C         139.2124  144.0813  164.3775 C.3     1  UNL1        0.0434
     24 C         140.3827  143.5097  165.1214 C.ar    1  UNL1       -0.0225
     25 C         139.9519  142.8525  166.3992 C.ar    1  UNL1        0.0178
     26 C         140.9717  142.2155  167.2959 C.ar    1  UNL1        0.1187
     27 N         140.8469  141.4987  168.6076 N.ar    1  UNL1       -0.2121
     28 C         142.2204  141.0758  169.0373 C.ar    1  UNL1        0.2062
     29 C         142.5604  140.3286  170.2927 C.3     1  UNL1        0.0950
     30 O         143.1941  141.5312  167.9911 O.2     1  UNL1       -0.4379
     31 C         142.4224  142.2356  166.9149 C.ar    1  UNL1        0.1701
     32 C         142.8532  142.8927  165.6372 C.ar    1  UNL1        0.0664
     33 BR        144.3038  142.9128  165.2562 Br      1  UNL1       -0.0461
     34 C         141.8334  143.5297  164.7404 C.ar    1  UNL1       -0.0154
     35 C         142.4720  144.1264  163.5214 C.3     1  UNL1        0.0439
     36 C         141.8176  144.8504  162.3822 C.3     1  UNL1        0.0768
@<TRIPOS>BOND
     1     8     9    1
     2     9    10   ar
     3    10    11   ar
     4    11    12   ar
     5    12    13   ar
     6    13     2    1
     7     2     3   ar
     8     3     4   ar
     9     4     5   ar
    10     5     1    1
    11     1    19    1
    12    19    20    1
    13    20    21    1
    14    21    22    1
    15    22    23    1
    16    23    24    1
    17    24    25   ar
    18    25    26   ar
    19    26    27   ar
    20    27    28   ar
    21    28    29    1
    22    28    30   ar
    23    30    31   ar
    24    31    32   ar
    25    32    33    1
    26    32    34   ar
    27    34    35    1
    28    35    36    1
    29     5     6   ar
    30     6     7    1
    31    13    14   ar
    32    14    15   ar
    33    15    16   ar
    34    16    17   ar
    35    17    18   ar
    36    18     9   ar
    37    17    12   ar
    38     6     2   ar
    39    36    21    1
    40    34    24   ar
    41    31    26   ar
@<TRIPOS>MOLECULE
*****
 36 41 0 0 0
SMALL
GASTEIGER

@<TRIPOS>ATOM
      1 S         142.2366  139.4794  169.0687 S.3     1  UNL1       -0.0742
      2 C         142.1684  138.6434  165.2790 C.ar    1  UNL1        0.1669
      3 N         143.5433  138.1759  165.6543 N.ar    1  UNL1       -0.1282
      4 N         143.7363  138.4321  167.1195 N.ar    1  UNL1       -0.1221
      5 C         142.4806  139.0581  167.6500 C.ar    1  UNL1        0.1933
      6 N         141.5115  139.1886  166.5124 N.ar    1  UNL1       -0.2884
      7 C         140.1285  139.7635  166.5940 C.3     1  UNL1        0.1340
      8 C         144.0452  141.6025  159.3654 C.3     1  UNL1        0.0521
      9 C         143.4233  140.8462  160.5017 C.ar    1  UNL1        0.0593
     10 C         144.0342  140.9123  161.8701 C.ar    1  UNL1        0.0147
     11 C         143.4122  140.1559  163.0064 C.ar    1  UNL1        0.0028
     12 C         142.1794  139.3336  162.7744 C.ar    1  UNL1        0.0206
     13 C         141.5575  138.5773  163.9106 C.ar    1  UNL1        0.0374
     14 C         140.3246  137.7549  163.6786 C.ar    1  UNL1        0.0031
     15 C         139.7138  137.6889  162.3103 C.ar    1  UNL1        0.0016
     16 C         140.3357  138.4452  161.1739 C.ar    1  UNL1        0.0191
     17 C         141.5685  139.2675  161.4060 C.ar    1  UNL1        0.0810
     18 N         142.1904  140.0238  160.2697 N.ar    1  UNL1       -0.2497
     19 C         142.9200  140.6968  169.6176 C.3     1  UNL1        0.0824
     20 C         142.3405  142.0579  169.3700 C.3     1  UNL1        0.0843
     21 N         142.0685  142.5135  167.9670 N.3     1  UNL1       -0.2713
     22 C         143.2582  142.5551  167.0542 C.3     1  UNL1        0.0768
     23 C         143.3160  142.9608  165.6112 C.3     1  UNL1        0.0434
     24 C         142.1986  143.4248  164.7247 C.ar    1  UNL1       -0.0225
     25 C         142.6888  143.7328  163.3409 C.ar    1  UNL1        0.0178
     26 C         141.7277  144.2139  162.2945 C.ar    1  UNL1        0.1187
     27 N         141.9176  144.5936  160.8559 N.ar    1  UNL1       -0.2121
     28 C         140.5836  145.0015  160.3042 C.ar    1  UNL1        0.2062
     29 C         140.3118  145.4570  158.9011 C.3     1  UNL1        0.0950
     30 O         139.5694  144.8737  161.4018 O.2     1  UNL1       -0.4379
     31 C         140.2764  144.3870  162.6319 C.ar    1  UNL1        0.1701
     32 C         139.7863  144.0790  164.0157 C.ar    1  UNL1        0.0664
     33 BR        138.3350  144.2522  164.3532 Br      1  UNL1       -0.0461
     34 C         140.7473  143.5980  165.0621 C.ar    1  UNL1       -0.0154
     35 C         140.0550  143.3497  166.3694 C.3     1  UNL1        0.0439
     36 C         140.6431  142.8671  167.6622 C.3     1  UNL1        0.0768
@<TRIPOS>BOND
     1     8     9    1
     2     9    10   ar
     3    10    11   ar
     4    11    12   ar
     5    12    13   ar
     6    13     2    1
     7     2     3   ar
     8     3     4   ar
     9     4     5   ar
    10     5     1    1
    11     1    19    1
    12    19    20    1
    13    20    21    1
    14    21    22    1
    15    22    23    1
    16    23    24    1
    17    24    25   ar
    18    25    26   ar
    19    26    27   ar
    20    27    28   ar
    21    28    29    1
    22    28    30   ar
    23    30    31   ar
    24    31    32   ar
    25    32    33    1
    26    32    34   ar
    27    34    35    1
    28    35    36    1
    29     5     6   ar
    30     6     7    1
    31    13    14   ar
    32    14    15   ar
    33    15    16   ar
    34    16    17   ar
    35    17    18   ar
    36    18     9   ar
    37    17    12   ar
    38     6     2   ar
    39    36    21    1
    40    34    24   ar
    41    31    26   ar
@<TRIPOS>MOLECULE
*****
 36 41 0 0 0
SMALL
GASTEIGER

@<TRIPOS>ATOM
      1 S         140.2038  144.1016  158.8518 S.3     1  UNL1       -0.0742
      2 C         140.5770  140.7178  160.7162 C.ar    1  UNL1        0.1669
      3 N         141.8442  140.7482  159.9142 N.ar    1  UNL1       -0.1282
      4 N         141.8587  142.0194  159.1181 N.ar    1  UNL1       -0.1221
      5 C         140.6004  142.7748  159.4282 C.ar    1  UNL1        0.1933
      6 N         139.8083  141.9704  160.4159 N.ar    1  UNL1       -0.2884
      7 C         138.4806  142.3515  161.0005 C.3     1  UNL1        0.1340
      8 C         143.5956  138.2087  166.3591 C.3     1  UNL1        0.0521
      9 C         142.7350  138.5632  165.1828 C.ar    1  UNL1        0.0593
     10 C         143.1590  139.6544  164.2450 C.ar    1  UNL1        0.0147
     11 C         142.2983  140.0089  163.0687 C.ar    1  UNL1        0.0028
     12 C         141.0136  139.2721  162.8302 C.ar    1  UNL1        0.0206
     13 C         140.1530  139.6266  161.6540 C.ar    1  UNL1        0.0374
     14 C         138.8683  138.8899  161.4155 C.ar    1  UNL1        0.0031
     15 C         138.4444  137.7987  162.3533 C.ar    1  UNL1        0.0016
     16 C         139.3050  137.4442  163.5296 C.ar    1  UNL1        0.0191
     17 C         140.5897  138.1809  163.7680 C.ar    1  UNL1        0.0810
     18 N         141.4503  137.8264  164.9443 N.ar    1  UNL1       -0.2497
     19 C         140.6868  145.3708  159.4891 C.3     1  UNL1        0.0824
     20 C         140.1018  145.8248  160.7935 C.3     1  UNL1        0.0843
     21 N         140.4647  145.1168  162.0651 N.3     1  UNL1       -0.2713
     22 C         139.3246  144.8235  162.9948 C.3     1  UNL1        0.0768
     23 C         139.3578  144.1367  164.3280 C.3     1  UNL1        0.0434
     24 C         140.5393  143.5735  165.0605 C.ar    1  UNL1       -0.0225
     25 C         140.1334  142.9680  166.3716 C.ar    1  UNL1        0.0178
     26 C         141.1676  142.3471  167.2631 C.ar    1  UNL1        0.1187
     27 N         141.0677  141.6785  168.6021 N.ar    1  UNL1       -0.2121
     28 C         142.4460  141.2498  169.0102 C.ar    1  UNL1        0.2062
     29 C         142.8087  140.5418  170.2819 C.3     1  UNL1        0.0950
     30 O         143.3977  141.6534  167.9235 O.2     1  UNL1       -0.4379
     31 C         142.6077  142.3316  166.8437 C.ar    1  UNL1        0.1701
     32 C         143.0136  142.9370  165.5327 C.ar    1  UNL1        0.0664
     33 BR        144.4536  142.9215  165.1132 Br      1  UNL1       -0.0461
     34 C         141.9794  143.5579  164.6411 C.ar    1  UNL1       -0.0154
     35 C         142.5936  144.1018  163.3854 C.3     1  UNL1        0.0439
     36 C         141.9194  144.7956  162.2390 C.3     1  UNL1        0.0768
@<TRIPOS>BOND
     1     8     9    1
     2     9    10   ar
     3    10    11   ar
     4    11    12   ar
     5    12    13   ar
     6    13     2    1
     7     2     3   ar
     8     3     4   ar
     9     4     5   ar
    10     5     1    1
    11     1    19    1
    12    19    20    1
    13    20    21    1
    14    21    22    1
    15    22    23    1
    16    23    24    1
    17    24    25   ar
    18    25    26   ar
    19    26    27   ar
    20    27    28   ar
    21    28    29    1
    22    28    30   ar
    23    30    31   ar
    24    31    32   ar
    25    32    33    1
    26    32    34   ar
    27    34    35    1
    28    35    36    1
    29     5     6   ar
    30     6     7    1
    31    13    14   ar
    32    14    15   ar
    33    15    16   ar
    34    16    17   ar
    35    17    18   ar
    36    18     9   ar
    37    17    12   ar
    38     6     2   ar
    39    36    21    1
    40    34    24   ar
    41    31    26   ar
@<TRIPOS>MOLECULE
*****
 36 41 0 0 0
SMALL
GASTEIGER

@<TRIPOS>ATOM
      1 S         140.0428  140.5656  169.4413 S.3     1  UNL1       -0.0742
      2 C         138.7723  140.6174  165.7741 C.ar    1  UNL1        0.1669
      3 N         138.2813  139.2761  166.2321 N.ar    1  UNL1       -0.1282
      4 N         138.6974  139.0934  167.6615 N.ar    1  UNL1       -0.1221
      5 C         139.4457  140.3218  168.0871 C.ar    1  UNL1        0.1933
      6 N         139.4920  141.2637  166.9206 N.ar    1  UNL1       -0.2884
      7 C         140.1435  142.6147  166.9035 C.3     1  UNL1        0.1340
      8 C         141.0109  138.5483  159.6131 C.3     1  UNL1        0.0521
      9 C         140.4027  139.2134  160.8122 C.ar    1  UNL1        0.0593
     10 C         140.5971  138.6221  162.1770 C.ar    1  UNL1        0.0147
     11 C         139.9888  139.2873  163.3761 C.ar    1  UNL1        0.0028
     12 C         139.1861  140.5436  163.2103 C.ar    1  UNL1        0.0206
     13 C         138.5779  141.2086  164.4093 C.ar    1  UNL1        0.0374
     14 C         137.7752  142.4649  164.2436 C.ar    1  UNL1        0.0031
     15 C         137.5809  143.0561  162.8788 C.ar    1  UNL1        0.0016
     16 C         138.1891  142.3910  161.6797 C.ar    1  UNL1        0.0191
     17 C         138.9918  141.1347  161.8455 C.ar    1  UNL1        0.0810
     18 N         139.6000  140.4697  160.6464 N.ar    1  UNL1       -0.2497
     19 C         141.2076  139.7428  169.9066 C.3     1  UNL1        0.0824
     20 C         142.5989  140.1018  169.4762 C.3     1  UNL1        0.0843
     21 N         142.8786  140.4285  168.0392 N.3     1  UNL1       -0.2713
     22 C         142.8547  139.2664  167.0910 C.3     1  UNL1        0.0768
     23 C         143.0915  139.2629  165.6097 C.3     1  UNL1        0.0434
     24 C         143.4108  140.4205  164.7110 C.ar    1  UNL1       -0.0225
     25 C         143.5724  139.9799  163.2863 C.ar    1  UNL1        0.0178
     26 C         143.8953  140.9864  162.2220 C.ar    1  UNL1        0.1187
     27 N         144.1115  140.8499  160.7440 N.ar    1  UNL1       -0.2121
     28 C         144.4064  142.2127  160.1909 C.ar    1  UNL1        0.2062
     29 C         144.6862  142.5393  158.7538 C.3     1  UNL1        0.0950
     30 O         144.3725  143.1913  161.3270 O.2     1  UNL1       -0.4379
     31 C         144.0566  142.4335  162.5823 C.ar    1  UNL1        0.1701
     32 C         143.8950  142.8741  164.0070 C.ar    1  UNL1        0.0664
     33 BR        144.0563  144.3212  164.3674 Br      1  UNL1       -0.0461
     34 C         143.5721  141.8677  165.0713 C.ar    1  UNL1       -0.0154
     35 C         143.4539  142.5145  166.4195 C.3     1  UNL1        0.0439
     36 C         143.1453  141.8740  167.7403 C.3     1  UNL1        0.0768
@<TRIPOS>BOND
     1     8     9    1
     2     9    10   ar
     3    10    11   ar
     4    11    12   ar
     5    12    13   ar
     6    13     2    1
     7     2     3   ar
     8     3     4   ar
     9     4     5   ar
    10     5     1    1
    11     1    19    1
    12    19    20    1
    13    20    21    1
    14    21    22    1
    15    22    23    1
    16    23    24    1
    17    24    25   ar
    18    25    26   ar
    19    26    27   ar
    20    27    28   ar
    21    28    29    1
    22    28    30   ar
    23    30    31   ar
    24    31    32   ar
    25    32    33    1
    26    32    34   ar
    27    34    35    1
    28    35    36    1
    29     5     6   ar
    30     6     7    1
    31    13    14   ar
    32    14    15   ar
    33    15    16   ar
    34    16    17   ar
    35    17    18   ar
    36    18     9   ar
    37    17    12   ar
    38     6     2   ar
    39    36    21    1
    40    34    24   ar
    41    31    26   ar
@<TRIPOS>MOLECULE
*****
 36 41 0 0 0
SMALL
GASTEIGER

@<TRIPOS>ATOM
      1 S         142.6030  138.2787  159.1088 S.3     1  UNL1       -0.0742
      2 C         140.5472  141.4794  159.8798 C.ar    1  UNL1        0.1669
      3 N         139.4528  140.4914  159.6040 N.ar    1  UNL1       -0.1282
      4 N         140.0896  139.1721  159.2816 N.ar    1  UNL1       -0.1221
      5 C         141.5777  139.3447  159.3582 C.ar    1  UNL1        0.1933
      6 N         141.8605  140.7707  159.7278 N.ar    1  UNL1       -0.2884
      7 C         143.2182  141.3809  159.9131 C.3     1  UNL1        0.1340
      8 C         139.0676  144.4476  165.9006 C.3     1  UNL1        0.0521
      9 C         139.3909  144.0663  164.4863 C.ar    1  UNL1        0.0593
     10 C         139.5771  142.6230  164.1225 C.ar    1  UNL1        0.0147
     11 C         139.9005  142.2418  162.7082 C.ar    1  UNL1        0.0028
     12 C         140.0377  143.3039  161.6578 C.ar    1  UNL1        0.0206
     13 C         140.3610  142.9227  160.2436 C.ar    1  UNL1        0.0374
     14 C         140.4983  143.9846  159.1932 C.ar    1  UNL1        0.0031
     15 C         140.3121  145.4278  159.5571 C.ar    1  UNL1        0.0016
     16 C         139.9887  145.8091  160.9713 C.ar    1  UNL1        0.0191
     17 C         139.8515  144.7471  162.0217 C.ar    1  UNL1        0.0810
     18 N         139.5281  145.1283  163.4359 N.ar    1  UNL1       -0.2497
     19 C         143.0147  137.3593  160.2204 C.3     1  UNL1        0.0824
     20 C         143.9502  137.8448  161.2876 C.3     1  UNL1        0.0843
     21 N         143.4065  138.5257  162.5086 N.3     1  UNL1       -0.2713
     22 C         144.2989  139.5598  163.1287 C.3     1  UNL1        0.0768
     23 C         144.0474  140.4061  164.3415 C.3     1  UNL1        0.0434
     24 C         142.8418  140.4272  165.2335 C.ar    1  UNL1       -0.0225
     25 C         142.9971  141.4269  166.3411 C.ar    1  UNL1        0.0178
     26 C         141.9002  141.6066  167.3483 C.ar    1  UNL1        0.1187
     27 N         141.7701  142.5075  168.5406 N.ar    1  UNL1       -0.2121
     28 C         140.4375  142.2445  169.1771 C.ar    1  UNL1        0.2062
     29 C         139.8940  142.9255  170.3981 C.3     1  UNL1        0.0950
     30 O         139.7441  141.1811  168.3783 O.2     1  UNL1       -0.4379
     31 C         140.6480  140.7869  167.2481 C.ar    1  UNL1        0.1701
     32 C         140.4927  139.7873  166.1405 C.ar    1  UNL1        0.0664
     33 BR        139.2406  138.9675  166.0401 Br      1  UNL1       -0.0461
     34 C         141.5896  139.6075  165.1332 C.ar    1  UNL1       -0.0154
     35 C         141.2339  138.5640  164.1160 C.3     1  UNL1        0.0439
     36 C         142.0426  138.0826  162.9480 C.3     1  UNL1        0.0768
@<TRIPOS>BOND
     1     8     9    1
     2     9    10   ar
     3    10    11   ar
     4    11    12   ar
     5    12    13   ar
     6    13     2    1
     7     2     3   ar
     8     3     4   ar
     9     4     5   ar
    10     5     1    1
    11     1    19    1
    12    19    20    1
    13    20    21    1
    14    21    22    1
    15    22    23    1
    16    23    24    1
    17    24    25   ar
    18    25    26   ar
    19    26    27   ar
    20    27    28   ar
    21    28    29    1
    22    28    30   ar
    23    30    31   ar
    24    31    32   ar
    25    32    33    1
    26    32    34   ar
    27    34    35    1
    28    35    36    1
    29     5     6   ar
    30     6     7    1
    31    13    14   ar
    32    14    15   ar
    33    15    16   ar
    34    16    17   ar
    35    17    18   ar
    36    18     9   ar
    37    17    12   ar
    38     6     2   ar
    39    36    21    1
    40    34    24   ar
    41    31    26   ar
@<TRIPOS>MOLECULE
*****
 36 41 0 0 0
SMALL
GASTEIGER

@<TRIPOS>ATOM
      1 S         143.5453  139.8789  158.4788 S.3     1  UNL1       -0.0742
      2 C         142.4790  143.0326  160.4745 C.ar    1  UNL1        0.1669
      3 N         143.9628  143.2337  160.3855 N.ar    1  UNL1       -0.1282
      4 N         144.5429  142.0769  159.6272 N.ar    1  UNL1       -0.1221
      5 C         143.4176  141.1607  159.2473 C.ar    1  UNL1        0.1933
      6 N         142.1420  141.7513  159.7710 N.ar    1  UNL1       -0.2884
      7 C         140.7704  141.1639  159.6180 C.3     1  UNL1        0.1340
      8 C         140.1219  143.1402  166.9306 C.3     1  UNL1        0.0521
      9 C         140.4673  143.3429  165.4851 C.ar    1  UNL1        0.0593
     10 C         141.4429  142.4242  164.8111 C.ar    1  UNL1        0.0147
     11 C         141.7883  142.6270  163.3655 C.ar    1  UNL1        0.0028
     12 C         141.1581  143.7485  162.5940 C.ar    1  UNL1        0.0206
     13 C         141.5035  143.9513  161.1485 C.ar    1  UNL1        0.0374
     14 C         140.8734  145.0727  160.3769 C.ar    1  UNL1        0.0031
     15 C         139.8978  145.9914  161.0510 C.ar    1  UNL1        0.0016
     16 C         139.5524  145.7886  162.4966 C.ar    1  UNL1        0.0191
     17 C         140.1826  144.6672  163.2681 C.ar    1  UNL1        0.0810
     18 N         139.8372  144.4644  164.7136 N.ar    1  UNL1       -0.2497
     19 C         142.6410  138.7236  158.7915 C.3     1  UNL1        0.0824
     20 C         142.9903  137.7769  159.9013 C.3     1  UNL1        0.0843
     21 N         142.6548  138.1284  161.3204 N.3     1  UNL1       -0.2713
     22 C         143.8226  138.4556  162.2033 C.3     1  UNL1        0.0768
     23 C         143.8199  138.8414  163.6529 C.3     1  UNL1        0.0434
     24 C         142.6490  138.9953  164.5775 C.ar    1  UNL1       -0.0225
     25 C         143.0873  139.3967  165.9547 C.ar    1  UNL1        0.0178
     26 C         142.0680  139.6042  167.0355 C.ar    1  UNL1        0.1187
     27 N         142.1994  139.9984  168.4768 N.ar    1  UNL1       -0.2121
     28 C         140.8231  140.0481  169.0711 C.ar    1  UNL1        0.2062
     29 C         140.4877  140.3996  170.4903 C.3     1  UNL1        0.0950
     30 O         139.8411  139.6847  167.9971 O.2     1  UNL1       -0.4379
     31 C         140.6104  139.4103  166.7391 C.ar    1  UNL1        0.1701
     32 C         140.1721  139.0089  165.3618 C.ar    1  UNL1        0.0664
     33 BR        138.7146  138.8150  165.0654 Br      1  UNL1       -0.0461
     34 C         141.1914  138.8015  164.2811 C.ar    1  UNL1       -0.0154
     35 C         140.5448  138.4058  162.9867 C.3     1  UNL1        0.0439
     36 C         141.1962  138.1062  161.6691 C.3     1  UNL1        0.0768
@<TRIPOS>BOND
     1     8     9    1
     2     9    10   ar
     3    10    11   ar
     4    11    12   ar
     5    12    13   ar
     6    13     2    1
     7     2     3   ar
     8     3     4   ar
     9     4     5   ar
    10     5     1    1
    11     1    19    1
    12    19    20    1
    13    20    21    1
    14    21    22    1
    15    22    23    1
    16    23    24    1
    17    24    25   ar
    18    25    26   ar
    19    26    27   ar
    20    27    28   ar
    21    28    29    1
    22    28    30   ar
    23    30    31   ar
    24    31    32   ar
    25    32    33    1
    26    32    34   ar
    27    34    35    1
    28    35    36    1
    29     5     6   ar
    30     6     7    1
    31    13    14   ar
    32    14    15   ar
    33    15    16   ar
    34    16    17   ar
    35    17    18   ar
    36    18     9   ar
    37    17    12   ar
    38     6     2   ar
    39    36    21    1
    40    34    24   ar
    41    31    26   ar
@<TRIPOS>MOLECULE
*****
 36 41 0 0 0
SMALL
GASTEIGER

@<TRIPOS>ATOM
      1 S         142.5777  139.4161  167.6708 S.3     1  UNL1       -0.0742
      2 C         141.7353  138.9682  163.9084 C.ar    1  UNL1        0.1669
      3 N         140.3682  138.9000  164.5217 N.ar    1  UNL1       -0.1282
      4 N         140.5172  139.0595  166.0057 N.ar    1  UNL1       -0.1221
      5 C         141.9767  139.2263  166.3097 C.ar    1  UNL1        0.1933
      6 N         142.7295  139.1699  165.0135 N.ar    1  UNL1       -0.2884
      7 C         144.2155  139.2934  164.8508 C.3     1  UNL1        0.1340
      8 C         139.0296  142.1604  158.4551 C.3     1  UNL1        0.0521
      9 C         139.7854  141.3340  159.4530 C.ar    1  UNL1        0.0593
     10 C         139.4680  141.4475  160.9147 C.ar    1  UNL1        0.0147
     11 C         140.2238  140.6210  161.9126 C.ar    1  UNL1        0.0028
     12 C         141.2970  139.6811  161.4489 C.ar    1  UNL1        0.0206
     13 C         142.0527  138.8548  162.4468 C.ar    1  UNL1        0.0374
     14 C         143.1259  137.9149  161.9831 C.ar    1  UNL1        0.0031
     15 C         143.4432  137.8015  160.5215 C.ar    1  UNL1        0.0016
     16 C         142.6874  138.6279  159.5235 C.ar    1  UNL1        0.0191
     17 C         141.6143  139.5677  159.9873 C.ar    1  UNL1        0.0810
     18 N         140.8585  140.3941  158.9893 N.ar    1  UNL1       -0.2497
     19 C         142.2697  140.6535  168.4608 C.3     1  UNL1        0.0824
     20 C         142.8066  141.9811  168.0147 C.3     1  UNL1        0.0843
     21 N         142.4559  142.5143  166.6572 N.3     1  UNL1       -0.2713
     22 C         143.6002  142.6539  165.6974 C.3     1  UNL1        0.0768
     23 C         143.5785  143.1511  164.2822 C.3     1  UNL1        0.0434
     24 C         142.4073  143.6313  163.4776 C.ar    1  UNL1       -0.0225
     25 C         142.8230  144.0421  162.0961 C.ar    1  UNL1        0.0178
     26 C         141.7999  144.5547  161.1263 C.ar    1  UNL1        0.1187
     27 N         141.9110  145.0303  159.7081 N.ar    1  UNL1       -0.2121
     28 C         140.5409  145.4260  159.2432 C.ar    1  UNL1        0.2062
     29 C         140.1903  145.9591  157.8856 C.3     1  UNL1        0.0950
     30 O         139.5830  145.1949  160.3741 O.2     1  UNL1       -0.4379
     31 C         140.3611  144.6565  161.5379 C.ar    1  UNL1        0.1701
     32 C         139.9453  144.2456  162.9194 C.ar    1  UNL1        0.0664
     33 BR        138.5066  144.3473  163.3309 Br      1  UNL1       -0.0461
     34 C         140.9684  143.7330  163.8892 C.ar    1  UNL1       -0.0154
     35 C         140.3455  143.3796  165.2071 C.3     1  UNL1        0.0439
     36 C         141.0075  142.8372  166.4390 C.3     1  UNL1        0.0768
@<TRIPOS>BOND
     1     8     9    1
     2     9    10   ar
     3    10    11   ar
     4    11    12   ar
     5    12    13   ar
     6    13     2    1
     7     2     3   ar
     8     3     4   ar
     9     4     5   ar
    10     5     1    1
    11     1    19    1
    12    19    20    1
    13    20    21    1
    14    21    22    1
    15    22    23    1
    16    23    24    1
    17    24    25   ar
    18    25    26   ar
    19    26    27   ar
    20    27    28   ar
    21    28    29    1
    22    28    30   ar
    23    30    31   ar
    24    31    32   ar
    25    32    33    1
    26    32    34   ar
    27    34    35    1
    28    35    36    1
    29     5     6   ar
    30     6     7    1
    31    13    14   ar
    32    14    15   ar
    33    15    16   ar
    34    16    17   ar
    35    17    18   ar
    36    18     9   ar
    37    17    12   ar
    38     6     2   ar
    39    36    21    1
    40    34    24   ar
    41    31    26   ar
@<TRIPOS>MOLECULE
*****
 36 41 0 0 0
SMALL
GASTEIGER

@<TRIPOS>ATOM
      1 S         142.7708  140.0109  157.5356 S.3     1  UNL1       -0.0742
      2 C         143.3827  136.7320  155.5507 C.ar    1  UNL1        0.1669
      3 N         144.7037  137.4227  155.3838 N.ar    1  UNL1       -0.1282
      4 N         144.6353  138.7350  156.1070 N.ar    1  UNL1       -0.1221
      5 C         143.2720  138.8555  156.7209 C.ar    1  UNL1        0.1933
      6 N         142.4978  137.6175  156.3771 N.ar    1  UNL1       -0.2884
      7 C         141.0866  137.3177  156.7876 C.3     1  UNL1        0.1340
      8 C         144.4596  130.3881  157.9683 C.3     1  UNL1        0.0521
      9 C         144.0976  131.6389  157.2237 C.ar    1  UNL1        0.0593
     10 C         144.4687  132.9797  157.7847 C.ar    1  UNL1        0.0147
     11 C         144.1067  134.2305  157.0400 C.ar    1  UNL1        0.0028
     12 C         143.3736  134.1405  155.7344 C.ar    1  UNL1        0.0206
     13 C         143.0116  135.3912  154.9897 C.ar    1  UNL1        0.0374
     14 C         142.2786  135.3013  153.6841 C.ar    1  UNL1        0.0031
     15 C         141.9076  133.9605  153.1232 C.ar    1  UNL1        0.0016
     16 C         142.2696  132.7097  153.8679 C.ar    1  UNL1        0.0191
     17 C         143.0026  132.7997  155.1735 C.ar    1  UNL1        0.0810
     18 N         143.3646  131.5489  155.9181 N.ar    1  UNL1       -0.2497
     19 C         143.1583  140.1346  158.9795 C.3     1  UNL1        0.0824
     20 C         143.1066  138.9329  159.8755 C.3     1  UNL1        0.0843
     21 N         142.7296  139.0892  161.3189 N.3     1  UNL1       -0.2713
     22 C         143.8565  138.9720  162.3022 C.3     1  UNL1        0.0768
     23 C         143.8077  139.0788  163.7976 C.3     1  UNL1        0.0434
     24 C         142.6202  139.3290  164.6791 C.ar    1  UNL1       -0.0225
     25 C         143.0098  139.3617  166.1273 C.ar    1  UNL1        0.0178
     26 C         141.9674  139.5998  167.1792 C.ar    1  UNL1        0.1187
     27 N         142.0514  139.6850  168.6744 N.ar    1  UNL1       -0.2121
     28 C         140.6713  139.9430  169.2024 C.ar    1  UNL1        0.2062
     29 C         140.2945  140.0993  170.6458 C.3     1  UNL1        0.0950
     30 O         139.7343  140.0172  168.0334 O.2     1  UNL1       -0.4379
     31 C         140.5352  139.8051  166.7831 C.ar    1  UNL1        0.1701
     32 C         140.1456  139.7724  165.3349 C.ar    1  UNL1        0.0664
     33 BR        138.7136  139.9777  164.9388 Br      1  UNL1       -0.0461
     34 C         141.1880  139.5343  164.2830 C.ar    1  UNL1       -0.0154
     35 C         140.5898  139.5401  162.9074 C.3     1  UNL1        0.0439
     36 C         141.2759  139.3420  161.5884 C.3     1  UNL1        0.0768
@<TRIPOS>BOND
     1     8     9    1
     2     9    10   ar
     3    10    11   ar
     4    11    12   ar
     5    12    13   ar
     6    13     2    1
     7     2     3   ar
     8     3     4   ar
     9     4     5   ar
    10     5     1    1
    11     1    19    1
    12    19    20    1
    13    20    21    1
    14    21    22    1
    15    22    23    1
    16    23    24    1
    17    24    25   ar
    18    25    26   ar
    19    26    27   ar
    20    27    28   ar
    21    28    29    1
    22    28    30   ar
    23    30    31   ar
    24    31    32   ar
    25    32    33    1
    26    32    34   ar
    27    34    35    1
    28    35    36    1
    29     5     6   ar
    30     6     7    1
    31    13    14   ar
    32    14    15   ar
    33    15    16   ar
    34    16    17   ar
    35    17    18   ar
    36    18     9   ar
    37    17    12   ar
    38     6     2   ar
    39    36    21    1
    40    34    24   ar
    41    31    26   ar
@<TRIPOS>MOLECULE
*****
 36 41 0 0 0
SMALL
GASTEIGER

@<TRIPOS>ATOM
      1 S         141.0884  140.2022  156.7037 S.3     1  UNL1       -0.0742
      2 C         138.8801  140.7837  159.8423 C.ar    1  UNL1        0.1669
      3 N         138.0853  139.7377  159.1184 N.ar    1  UNL1       -0.1282
      4 N         138.8157  139.3925  157.8546 N.ar    1  UNL1       -0.1221
      5 C         140.0621  140.2252  157.7973 C.ar    1  UNL1        0.1933
      6 N         140.1018  141.0851  159.0258 N.ar    1  UNL1       -0.2884
      7 C         141.1749  142.0728  159.3763 C.3     1  UNL1        0.1340
      8 C         138.3349  138.0926  166.1439 C.3     1  UNL1        0.0521
      9 C         138.3804  138.9237  164.8960 C.ar    1  UNL1        0.0593
     10 C         138.7436  138.2902  163.5857 C.ar    1  UNL1        0.0147
     11 C         138.7890  139.1214  162.3379 C.ar    1  UNL1        0.0028
     12 C         138.4714  140.5861  162.4003 C.ar    1  UNL1        0.0206
     13 C         138.5169  141.4172  161.1525 C.ar    1  UNL1        0.0374
     14 C         138.1993  142.8819  161.2149 C.ar    1  UNL1        0.0031
     15 C         137.8362  143.5153  162.5252 C.ar    1  UNL1        0.0016
     16 C         137.7907  142.6842  163.7730 C.ar    1  UNL1        0.0191
     17 C         138.1083  141.2195  163.7106 C.ar    1  UNL1        0.0810
     18 N         138.0628  140.3884  164.9585 N.ar    1  UNL1       -0.2497
     19 C         142.0011  139.0209  156.5564 C.3     1  UNL1        0.0824
     20 C         143.2516  138.9321  157.3800 C.3     1  UNL1        0.0843
     21 N         143.1771  139.0579  158.8728 N.3     1  UNL1       -0.2713
     22 C         142.3695  138.0066  159.5749 C.3     1  UNL1        0.0768
     23 C         142.1053  137.8561  161.0439 C.3     1  UNL1        0.0434
     24 C         142.5834  138.7196  162.1733 C.ar    1  UNL1       -0.0225
     25 C         142.0886  138.2148  163.4964 C.ar    1  UNL1        0.0178
     26 C         142.4542  138.9373  164.7590 C.ar    1  UNL1        0.1187
     27 N         142.1174  138.6777  166.1975 N.ar    1  UNL1       -0.2121
     28 C         142.7696  139.7444  167.0261 C.ar    1  UNL1        0.2062
     29 C         142.6949  139.8701  168.5190 C.3     1  UNL1        0.0950
     30 O         143.5094  140.6634  166.0998 O.2     1  UNL1       -0.4379
     31 C         143.3145  140.1646  164.6988 C.ar    1  UNL1        0.1701
     32 C         143.8093  140.6694  163.3757 C.ar    1  UNL1        0.0664
     33 BR        144.6696  141.8966  163.3153 Br      1  UNL1       -0.0461
     34 C         143.4437  139.9469  162.1130 C.ar    1  UNL1       -0.0154
     35 C         144.0385  140.6138  160.9082 C.3     1  UNL1        0.0439
     36 C         143.9197  140.2181  159.4662 C.3     1  UNL1        0.0768
@<TRIPOS>BOND
     1     8     9    1
     2     9    10   ar
     3    10    11   ar
     4    11    12   ar
     5    12    13   ar
     6    13     2    1
     7     2     3   ar
     8     3     4   ar
     9     4     5   ar
    10     5     1    1
    11     1    19    1
    12    19    20    1
    13    20    21    1
    14    21    22    1
    15    22    23    1
    16    23    24    1
    17    24    25   ar
    18    25    26   ar
    19    26    27   ar
    20    27    28   ar
    21    28    29    1
    22    28    30   ar
    23    30    31   ar
    24    31    32   ar
    25    32    33    1
    26    32    34   ar
    27    34    35    1
    28    35    36    1
    29     5     6   ar
    30     6     7    1
    31    13    14   ar
    32    14    15   ar
    33    15    16   ar
    34    16    17   ar
    35    17    18   ar
    36    18     9   ar
    37    17    12   ar
    38     6     2   ar
    39    36    21    1
    40    34    24   ar
    41    31    26   ar
