@<TRIPOS>MOLECULE
*****
 36 38 0 0 0
SMALL
GASTEIGER

@<TRIPOS>ATOM
      1 C         139.5601  142.6782  164.7651 C.2     1  UNL1        0.2521
      2 O         138.4217  143.6514  164.6820 O.2     1  UNL1       -0.2698
      3 N         140.4292  142.4364  163.5667 N.am    1  UNL1       -0.2725
      4 C         141.5676  141.4632  163.6499 C.3     1  UNL1        0.1152
      5 C         142.4366  141.2214  162.4514 C.3     1  UNL1        0.1137
      6 N         142.1673  141.9529  161.1698 N.pl3   1  UNL1       -0.2880
      7 C         141.0289  142.9261  161.0867 C.3     1  UNL1        0.1137
      8 C         140.1598  143.1679  162.2851 C.3     1  UNL1        0.1152
      9 C         143.0363  141.7112  159.9713 C.ar    1  UNL1        0.1594
     10 N         144.0221  142.7550  159.5369 N.ar    1  UNL1       -0.2269
     11 C         144.8912  142.5132  158.3385 C.ar    1  UNL1        0.1043
     12 C         144.7745  141.2276  157.5744 C.ar    1  UNL1        0.0929
     13 C         143.7887  140.1839  158.0089 C.ar    1  UNL1        0.0380
     14 C         142.9197  140.4256  159.2073 C.ar    1  UNL1        0.1715
     15 F         141.9339  139.3818  159.6418 F       1  UNL1       -0.2012
     16 C         145.6435  140.9859  156.3760 C.3     1  UNL1        0.4201
     17 F         146.5126  140.7441  155.1776 F       1  UNL1       -0.1658
     18 F         146.4732  142.1825  156.7362 F       1  UNL1       -0.1658
     19 F         144.8139  139.7892  156.0158 F       1  UNL1       -0.1658
     20 C         139.1757  140.6218  166.3058 C.ar    1  UNL1        0.1427
     21 C         139.4451  139.8904  167.5873 C.ar    1  UNL1        0.0384
     22 C         140.3682  140.4839  168.6098 C.ar    1  UNL1        0.0215
     23 C         141.0219  141.8088  168.3508 C.ar    1  UNL1        0.1061
     24 C         140.7526  142.5402  167.0693 C.ar    1  UNL1        0.0259
     25 C         139.8294  141.9467  166.0467 C.ar    1  UNL1        0.0887
     26 S         141.9451  142.4023  169.3734 S.O2    1  UNL1        0.0105
     27 C         142.8682  142.9958  170.3959 C.3     1  UNL1        0.1816
     28 O         140.9561  143.5009  169.6285 O.2     1  UNL1       -0.1686
     29 O         142.9340  141.3037  169.1182 O.2     1  UNL1       -0.1686
     30 O         138.2526  140.0283  165.2832 O.3     1  UNL1       -0.4790
     31 C         138.9550  137.5393  165.0357 C.3     1  UNL1        0.0472
     32 C         138.7167  138.8886  164.4255 C.3     1  UNL1        0.1658
     33 C         138.9426  139.0984  162.9574 C.3     1  UNL1        0.0368
     34 C         137.8114  140.0828  162.9240 C.3     1  UNL1        0.0036
     35 C         140.0737  138.1139  162.9909 C.3     1  UNL1        0.0036
     36 C         139.1684  139.3080  161.4895 C.3     1  UNL1        0.0036
@<TRIPOS>BOND
     1    32    31    1
     2    32    30    1
     3    30    20    1
     4    20    21   ar
     5    21    22   ar
     6    22    23   ar
     7    23    26    1
     8    26    27    1
     9    26    28    2
    10    26    29    2
    11    23    24   ar
    12    24    25   ar
    13    25     1    1
    14     1     2    2
    15     1     3   am
    16     3     4    1
    17     4     5    1
    18     5     6    1
    19     6     9    1
    20     9    10   ar
    21    10    11   ar
    22    11    12   ar
    23    12    16    1
    24    16    17    1
    25    16    18    1
    26    16    19    1
    27    12    13   ar
    28    13    14   ar
    29    14    15    1
    30     6     7    1
    31     7     8    1
    32    32    33    1
    33    33    34    1
    34    33    35    1
    35    33    36    1
    36    25    20   ar
    37     8     3    1
    38    14     9   ar
@<TRIPOS>MOLECULE
*****
 36 38 0 0 0
SMALL
GASTEIGER

@<TRIPOS>ATOM
      1 C         142.4844  140.0625  165.0151 C.2     1  UNL1        0.2521
      2 O         143.5070  138.9715  164.8975 O.2     1  UNL1       -0.2698
      3 N         142.1375  140.8975  163.8183 N.am    1  UNL1       -0.2725
      4 C         141.1148  141.9886  163.9359 C.3     1  UNL1        0.1152
      5 C         140.7679  142.8236  162.7391 C.3     1  UNL1        0.1137
      6 N         141.4436  142.5674  161.4245 N.pl3   1  UNL1       -0.2880
      7 C         142.4662  141.4764  161.3069 C.3     1  UNL1        0.1137
      8 C         142.8131  140.6414  162.5038 C.3     1  UNL1        0.1152
      9 C         141.0967  143.4024  160.2277 C.ar    1  UNL1        0.1594
     10 N         141.8570  144.6649  159.9481 N.ar    1  UNL1       -0.2269
     11 C         141.5101  145.4999  158.7513 C.ar    1  UNL1        0.1043
     12 C         140.4029  145.0723  157.8340 C.ar    1  UNL1        0.0929
     13 C         139.6427  143.8099  158.1135 C.ar    1  UNL1        0.0380
     14 C         139.9896  142.9749  159.3104 C.ar    1  UNL1        0.1715
     15 F         139.2293  141.7124  159.5899 F       1  UNL1       -0.2012
     16 C         140.0559  145.9073  156.6371 C.3     1  UNL1        0.4201
     17 F         139.7090  146.7423  155.4402 F       1  UNL1       -0.1658
     18 F         139.6090  147.0176  157.5412 F       1  UNL1       -0.1658
     19 F         140.5029  144.7970  155.7330 F       1  UNL1       -0.1658
     20 C         140.5019  139.6524  166.6436 C.ar    1  UNL1        0.1427
     21 C         139.8263  139.9086  167.9580 C.ar    1  UNL1        0.0384
     22 C         140.4573  140.8309  168.9585 C.ar    1  UNL1        0.0215
     23 C         141.7641  141.4971  168.6446 C.ar    1  UNL1        0.1061
     24 C         142.4397  141.2410  167.3301 C.ar    1  UNL1        0.0259
     25 C         141.8086  140.3186  166.3296 C.ar    1  UNL1        0.0887
     26 S         142.3951  142.4195  169.6451 S.O2    1  UNL1        0.0105
     27 C         143.0262  143.3418  170.6456 C.3     1  UNL1        0.1816
     28 O         143.5748  142.5985  168.7360 O.2     1  UNL1       -0.1686
     29 O         141.2155  142.2405  170.5542 O.2     1  UNL1       -0.1686
     30 O         139.8709  138.7301  165.6431 O.3     1  UNL1       -0.4790
     31 C         138.0301  140.4082  164.9045 C.3     1  UNL1        0.0472
     32 C         138.9658  139.2812  164.5814 C.3     1  UNL1        0.1658
     33 C         138.9964  138.7053  163.1967 C.3     1  UNL1        0.0368
     34 C         139.9416  137.6374  163.6616 C.3     1  UNL1        0.0036
     35 C         138.0512  139.7732  162.7317 C.3     1  UNL1        0.0036
     36 C         139.0270  138.1296  161.8120 C.3     1  UNL1        0.0036
@<TRIPOS>BOND
     1    32    31    1
     2    32    30    1
     3    30    20    1
     4    20    21   ar
     5    21    22   ar
     6    22    23   ar
     7    23    26    1
     8    26    27    1
     9    26    28    2
    10    26    29    2
    11    23    24   ar
    12    24    25   ar
    13    25     1    1
    14     1     2    2
    15     1     3   am
    16     3     4    1
    17     4     5    1
    18     5     6    1
    19     6     9    1
    20     9    10   ar
    21    10    11   ar
    22    11    12   ar
    23    12    16    1
    24    16    17    1
    25    16    18    1
    26    16    19    1
    27    12    13   ar
    28    13    14   ar
    29    14    15    1
    30     6     7    1
    31     7     8    1
    32    32    33    1
    33    33    34    1
    34    33    35    1
    35    33    36    1
    36    25    20   ar
    37     8     3    1
    38    14     9   ar
@<TRIPOS>MOLECULE
*****
 36 38 0 0 0
SMALL
GASTEIGER

@<TRIPOS>ATOM
      1 C         144.2991  141.3451  164.0809 C.2     1  UNL1        0.2521
      2 O         145.7891  141.1749  164.0515 O.2     1  UNL1       -0.2698
      3 N         143.5948  141.9893  162.9238 N.am    1  UNL1       -0.2725
      4 C         142.1047  142.1596  162.9534 C.3     1  UNL1        0.1152
      5 C         141.4004  142.8038  161.7962 C.3     1  UNL1        0.1137
      6 N         142.1861  143.2777  160.6096 N.pl3   1  UNL1       -0.2880
      7 C         143.6761  143.1075  160.5801 C.3     1  UNL1        0.1137
      8 C         144.3805  142.4633  161.7372 C.3     1  UNL1        0.1152
      9 C         141.4818  143.9219  159.4525 C.ar    1  UNL1        0.1594
     10 N         141.8750  145.2996  159.0079 N.ar    1  UNL1       -0.2269
     11 C         141.1706  145.9438  157.8508 C.ar    1  UNL1        0.1043
     12 C         140.0732  145.2103  157.1382 C.ar    1  UNL1        0.0929
     13 C         139.6801  143.8328  157.5828 C.ar    1  UNL1        0.0380
     14 C         140.3844  143.1886  158.7399 C.ar    1  UNL1        0.1715
     15 F         139.9912  141.8109  159.1845 F       1  UNL1       -0.2012
     16 C         139.3688  145.8545  155.9811 C.3     1  UNL1        0.4201
     17 F         138.6645  146.4987  154.8240 F       1  UNL1       -0.1658
     18 F         139.5820  144.6162  155.1619 F       1  UNL1       -0.1658
     19 F         139.1556  147.0929  156.8003 F       1  UNL1       -0.1658
     20 C         143.0378  139.4501  165.3332 C.ar    1  UNL1        0.1427
     21 C         142.2522  138.9762  166.5198 C.ar    1  UNL1        0.0384
     22 C         141.9420  139.9234  167.6408 C.ar    1  UNL1        0.0215
     23 C         142.4176  141.3445  167.5752 C.ar    1  UNL1        0.1061
     24 C         143.2033  141.8184  166.3886 C.ar    1  UNL1        0.0259
     25 C         143.5134  140.8712  165.2676 C.ar    1  UNL1        0.0887
     26 S         142.1074  142.2917  168.6962 S.O2    1  UNL1        0.0105
     27 C         141.7973  143.2389  169.8172 C.3     1  UNL1        0.1816
     28 O         143.4688  142.0493  169.2776 O.2     1  UNL1       -0.1686
     29 O         140.7461  142.5341  168.1148 O.2     1  UNL1       -0.1686
     30 O         143.3480  138.5029  164.2122 O.3     1  UNL1       -0.4790
     31 C         141.1815  137.2109  163.5901 C.3     1  UNL1        0.0472
     32 C         142.2869  138.1516  163.2119 C.3     1  UNL1        0.1658
     33 C         142.3312  138.7411  161.8332 C.3     1  UNL1        0.0368
     34 C         140.8487  138.9643  161.8810 C.3     1  UNL1        0.0036
     35 C         143.8137  138.5179  161.7855 C.3     1  UNL1        0.0036
     36 C         142.3756  139.3306  160.4546 C.3     1  UNL1        0.0036
@<TRIPOS>BOND
     1    32    31    1
     2    32    30    1
     3    30    20    1
     4    20    21   ar
     5    21    22   ar
     6    22    23   ar
     7    23    26    1
     8    26    27    1
     9    26    28    2
    10    26    29    2
    11    23    24   ar
    12    24    25   ar
    13    25     1    1
    14     1     2    2
    15     1     3   am
    16     3     4    1
    17     4     5    1
    18     5     6    1
    19     6     9    1
    20     9    10   ar
    21    10    11   ar
    22    11    12   ar
    23    12    16    1
    24    16    17    1
    25    16    18    1
    26    16    19    1
    27    12    13   ar
    28    13    14   ar
    29    14    15    1
    30     6     7    1
    31     7     8    1
    32    32    33    1
    33    33    34    1
    34    33    35    1
    35    33    36    1
    36    25    20   ar
    37     8     3    1
    38    14     9   ar
@<TRIPOS>MOLECULE
*****
 36 38 0 0 0
SMALL
GASTEIGER

@<TRIPOS>ATOM
      1 C         143.2567  142.0393  164.5350 C.2     1  UNL1        0.2521
      2 O         144.4253  142.9797  164.5411 O.2     1  UNL1       -0.2698
      3 N         142.9241  141.2644  163.2944 N.am    1  UNL1       -0.2725
      4 C         141.7555  140.3239  163.2884 C.3     1  UNL1        0.1152
      5 C         141.4229  139.5490  162.0479 C.3     1  UNL1        0.1137
      6 N         142.2589  139.7145  160.8134 N.pl3   1  UNL1       -0.2880
      7 C         143.4275  140.6549  160.8196 C.3     1  UNL1        0.1137
      8 C         143.7601  141.4298  162.0601 C.3     1  UNL1        0.1152
      9 C         141.9263  138.9396  159.5729 C.ar    1  UNL1        0.1594
     10 N         142.9708  138.0823  158.9215 N.ar    1  UNL1       -0.2269
     11 C         142.6382  137.3074  157.6810 C.ar    1  UNL1        0.1043
     12 C         141.2611  137.3897  157.0919 C.ar    1  UNL1        0.0929
     13 C         140.2167  138.2469  157.7433 C.ar    1  UNL1        0.0380
     14 C         140.5493  139.0218  158.9838 C.ar    1  UNL1        0.1715
     15 F         139.5048  139.8791  159.6352 F       1  UNL1       -0.2012
     16 C         140.9285  136.6148  155.8514 C.3     1  UNL1        0.4201
     17 F         140.5959  135.8399  154.6109 F       1  UNL1       -0.1658
     18 F         139.4686  136.8692  156.0839 F       1  UNL1       -0.1658
     19 F         142.3884  136.3604  155.6189 F       1  UNL1       -0.1658
     20 C         141.2071  142.7312  165.9738 C.ar    1  UNL1        0.1427
     21 C         140.3711  142.5657  167.2082 C.ar    1  UNL1        0.0384
     22 C         140.7488  141.5427  168.2381 C.ar    1  UNL1        0.0215
     23 C         141.9624  140.6852  168.0337 C.ar    1  UNL1        0.1061
     24 C         142.7984  140.8508  166.7994 C.ar    1  UNL1        0.0259
     25 C         142.4207  141.8738  165.7694 C.ar    1  UNL1        0.0887
     26 S         142.3401  139.6622  169.0637 S.O2    1  UNL1        0.0105
     27 C         142.7178  138.6392  170.0937 C.3     1  UNL1        0.1816
     28 O         143.1491  138.9269  168.0367 O.2     1  UNL1       -0.1686
     29 O         141.5311  140.3976  170.0907 O.2     1  UNL1       -0.1686
     30 O         140.8294  143.7542  164.9438 O.3     1  UNL1       -0.4790
     31 C         138.5742  144.9711  165.3717 C.3     1  UNL1        0.0472
     32 C         139.3862  143.9742  164.5992 C.3     1  UNL1        0.1658
     33 C         138.7549  143.1971  163.4821 C.3     1  UNL1        0.0368
     34 C         137.7055  142.6912  164.4270 C.3     1  UNL1        0.0036
     35 C         139.8043  143.7031  162.5373 C.3     1  UNL1        0.0036
     36 C         138.1238  142.4202  162.3651 C.3     1  UNL1        0.0036
@<TRIPOS>BOND
     1    32    31    1
     2    32    30    1
     3    30    20    1
     4    20    21   ar
     5    21    22   ar
     6    22    23   ar
     7    23    26    1
     8    26    27    1
     9    26    28    2
    10    26    29    2
    11    23    24   ar
    12    24    25   ar
    13    25     1    1
    14     1     2    2
    15     1     3   am
    16     3     4    1
    17     4     5    1
    18     5     6    1
    19     6     9    1
    20     9    10   ar
    21    10    11   ar
    22    11    12   ar
    23    12    16    1
    24    16    17    1
    25    16    18    1
    26    16    19    1
    27    12    13   ar
    28    13    14   ar
    29    14    15    1
    30     6     7    1
    31     7     8    1
    32    32    33    1
    33    33    34    1
    34    33    35    1
    35    33    36    1
    36    25    20   ar
    37     8     3    1
    38    14     9   ar
@<TRIPOS>MOLECULE
*****
 36 38 0 0 0
SMALL
GASTEIGER

@<TRIPOS>ATOM
      1 C         138.9462  139.5593  165.5483 C.2     1  UNL1        0.2521
      2 O         137.6960  138.9031  166.0547 O.2     1  UNL1       -0.2698
      3 N         139.4220  139.2894  164.1516 N.am    1  UNL1       -0.2725
      4 C         140.6723  139.9456  163.6453 C.3     1  UNL1        0.1152
      5 C         141.1481  139.6757  162.2486 C.3     1  UNL1        0.1137
      6 N         140.3737  138.7495  161.3583 N.pl3   1  UNL1       -0.2880
      7 C         139.1235  138.0934  161.8646 C.3     1  UNL1        0.1137
      8 C         138.6477  138.3633  163.2613 C.3     1  UNL1        0.1152
      9 C         140.8495  138.4796  159.9616 C.ar    1  UNL1        0.1594
     10 N         142.2266  137.9311  159.7312 N.ar    1  UNL1       -0.2269
     11 C         142.7024  137.6612  158.3345 C.ar    1  UNL1        0.1043
     12 C         141.8012  137.9398  157.1682 C.ar    1  UNL1        0.0929
     13 C         140.4242  138.4883  157.3986 C.ar    1  UNL1        0.0380
     14 C         139.9484  138.7582  158.7953 C.ar    1  UNL1        0.1715
     15 F         138.5714  139.3067  159.0256 F       1  UNL1       -0.2012
     16 C         142.2770  137.6699  155.7715 C.3     1  UNL1        0.4201
     17 F         142.7529  137.4000  154.3748 F       1  UNL1       -0.1658
     18 F         143.5316  137.0553  156.3177 F       1  UNL1       -0.1658
     19 F         141.0224  138.2845  155.2253 F       1  UNL1       -0.1658
     20 C         139.6418  141.9685  166.2281 C.ar    1  UNL1        0.1427
     21 C         140.4162  142.8945  167.1184 C.ar    1  UNL1        0.0384
     22 C         141.2694  142.3376  168.2192 C.ar    1  UNL1        0.0215
     23 C         141.3482  140.8545  168.4298 C.ar    1  UNL1        0.1061
     24 C         140.5738  139.9285  167.5395 C.ar    1  UNL1        0.0259
     25 C         139.7206  140.4854  166.4386 C.ar    1  UNL1        0.0887
     26 S         142.2014  140.2976  169.5306 S.O2    1  UNL1        0.0105
     27 C         143.0546  139.7406  170.6314 C.3     1  UNL1        0.1816
     28 O         142.9450  139.4617  168.5314 O.2     1  UNL1       -0.1686
     29 O         141.4578  141.1334  170.5298 O.2     1  UNL1       -0.1686
     30 O         138.7886  142.5254  165.1273 O.3     1  UNL1       -0.4790
     31 C         138.4551  145.0214  165.7667 C.3     1  UNL1        0.0472
     32 C         138.8771  143.9802  164.7728 C.3     1  UNL1        0.1658
     33 C         139.3876  144.3939  163.4243 C.3     1  UNL1        0.0368
     34 C         140.6637  144.8693  164.0532 C.3     1  UNL1        0.0036
     35 C         138.1115  143.9184  162.7954 C.3     1  UNL1        0.0036
     36 C         139.8980  144.8075  162.0758 C.3     1  UNL1        0.0036
@<TRIPOS>BOND
     1    32    31    1
     2    32    30    1
     3    30    20    1
     4    20    21   ar
     5    21    22   ar
     6    22    23   ar
     7    23    26    1
     8    26    27    1
     9    26    28    2
    10    26    29    2
    11    23    24   ar
    12    24    25   ar
    13    25     1    1
    14     1     2    2
    15     1     3   am
    16     3     4    1
    17     4     5    1
    18     5     6    1
    19     6     9    1
    20     9    10   ar
    21    10    11   ar
    22    11    12   ar
    23    12    16    1
    24    16    17    1
    25    16    18    1
    26    16    19    1
    27    12    13   ar
    28    13    14   ar
    29    14    15    1
    30     6     7    1
    31     7     8    1
    32    32    33    1
    33    33    34    1
    34    33    35    1
    35    33    36    1
    36    25    20   ar
    37     8     3    1
    38    14     9   ar
@<TRIPOS>MOLECULE
*****
 36 38 0 0 0
SMALL
GASTEIGER

@<TRIPOS>ATOM
      1 C         138.6971  140.2114  157.4981 C.2     1  UNL1        0.2521
      2 O         139.0541  138.9984  156.6912 O.2     1  UNL1       -0.2698
      3 N         138.7819  140.1680  158.9951 N.am    1  UNL1       -0.2725
      4 C         138.4250  141.3810  159.8020 C.3     1  UNL1        0.1152
      5 C         138.5098  141.3376  161.2990 C.3     1  UNL1        0.1137
      6 N         138.9516  140.0811  161.9890 N.pl3   1  UNL1       -0.2880
      7 C         139.3086  138.8681  161.1821 C.3     1  UNL1        0.1137
      8 C         139.2237  138.9115  159.6851 C.3     1  UNL1        0.1152
      9 C         139.0365  140.0377  163.4860 C.ar    1  UNL1        0.1594
     10 N         139.3776  141.2801  164.2542 N.ar    1  UNL1       -0.2269
     11 C         139.4625  141.2366  165.7512 C.ar    1  UNL1        0.1043
     12 C         139.2062  139.9508  166.4799 C.ar    1  UNL1        0.0929
     13 C         138.8650  138.7085  165.7117 C.ar    1  UNL1        0.0380
     14 C         138.7802  138.7519  164.2147 C.ar    1  UNL1        0.1715
     15 F         138.4390  137.5095  163.4465 F       1  UNL1       -0.2012
     16 C         139.2910  139.9074  167.9769 C.3     1  UNL1        0.4201
     17 F         139.3758  139.8639  169.4739 F       1  UNL1       -0.1658
     18 F         140.5558  140.7123  167.9286 F       1  UNL1       -0.1658
     19 F         138.0262  139.1024  168.0252 F       1  UNL1       -0.1658
     20 C         136.8094  141.6640  156.4606 C.ar    1  UNL1        0.1427
     21 C         136.3676  142.9204  155.7706 C.ar    1  UNL1        0.0384
     22 C         137.3718  143.9808  155.4281 C.ar    1  UNL1        0.0215
     23 C         138.8177  143.7847  155.7757 C.ar    1  UNL1        0.1061
     24 C         139.2595  142.5283  156.4657 C.ar    1  UNL1        0.0259
     25 C         138.2553  141.4679  156.8081 C.ar    1  UNL1        0.0887
     26 S         139.8219  144.8451  155.4333 S.O2    1  UNL1        0.0105
     27 C         140.8260  145.9055  155.0908 C.3     1  UNL1        0.1816
     28 O         138.7221  145.8624  155.3584 O.2     1  UNL1       -0.1686
     29 O         140.9216  143.8278  155.5081 O.2     1  UNL1       -0.1686
     30 O         135.8052  140.6036  156.8030 O.3     1  UNL1       -0.4790
     31 C         135.2257  139.5694  154.4912 C.3     1  UNL1        0.0472
     32 C         134.7849  140.1811  155.7879 C.3     1  UNL1        0.1658
     33 C         133.3237  140.3703  156.0696 C.3     1  UNL1        0.0368
     34 C         133.1954  141.2149  154.8367 C.3     1  UNL1        0.0036
     35 C         133.4521  139.5256  157.3025 C.3     1  UNL1        0.0036
     36 C         131.8626  140.5594  156.3513 C.3     1  UNL1        0.0036
@<TRIPOS>BOND
     1    32    31    1
     2    32    30    1
     3    30    20    1
     4    20    21   ar
     5    21    22   ar
     6    22    23   ar
     7    23    26    1
     8    26    27    1
     9    26    28    2
    10    26    29    2
    11    23    24   ar
    12    24    25   ar
    13    25     1    1
    14     1     2    2
    15     1     3   am
    16     3     4    1
    17     4     5    1
    18     5     6    1
    19     6     9    1
    20     9    10   ar
    21    10    11   ar
    22    11    12   ar
    23    12    16    1
    24    16    17    1
    25    16    18    1
    26    16    19    1
    27    12    13   ar
    28    13    14   ar
    29    14    15    1
    30     6     7    1
    31     7     8    1
    32    32    33    1
    33    33    34    1
    34    33    35    1
    35    33    36    1
    36    25    20   ar
    37     8     3    1
    38    14     9   ar
@<TRIPOS>MOLECULE
*****
 36 38 0 0 0
SMALL
GASTEIGER

@<TRIPOS>ATOM
      1 C         142.5707  140.9464  163.2841 C.2     1  UNL1        0.2521
      2 O         143.8055  140.8844  164.1334 O.2     1  UNL1       -0.2698
      3 N         142.4686  140.1051  162.0465 N.am    1  UNL1       -0.2725
      4 C         141.2337  140.1671  161.1972 C.3     1  UNL1        0.1152
      5 C         141.1316  139.3258  159.9595 C.3     1  UNL1        0.1137
      6 N         142.2644  138.4225  159.5711 N.pl3   1  UNL1       -0.2880
      7 C         143.4992  138.3605  160.4204 C.3     1  UNL1        0.1137
      8 C         143.6013  139.2018  161.6581 C.3     1  UNL1        0.1152
      9 C         142.1623  137.5812  158.3335 C.ar    1  UNL1        0.1594
     10 N         143.1580  136.4868  158.0863 N.ar    1  UNL1       -0.2269
     11 C         143.0559  135.6455  156.8486 C.ar    1  UNL1        0.1043
     12 C         141.9581  135.8987  155.8582 C.ar    1  UNL1        0.0929
     13 C         140.9626  136.9930  156.1054 C.ar    1  UNL1        0.0380
     14 C         141.0647  137.8343  157.3430 C.ar    1  UNL1        0.1715
     15 F         140.0690  138.9287  157.5902 F       1  UNL1       -0.2012
     16 C         141.8560  135.0574  154.6205 C.3     1  UNL1        0.4201
     17 F         141.7540  134.2161  153.3828 F       1  UNL1       -0.1658
     18 F         142.6728  136.0655  153.8678 F       1  UNL1       -0.1658
     19 F         141.0392  134.0492  155.3731 F       1  UNL1       -0.1658
     20 C         140.5644  141.4978  164.8401 C.ar    1  UNL1        0.1427
     21 C         139.4316  142.4011  165.2284 C.ar    1  UNL1        0.0384
     22 C         139.1723  143.6563  164.4492 C.ar    1  UNL1        0.0215
     23 C         140.0458  144.0082  163.2816 C.ar    1  UNL1        0.1061
     24 C         141.1785  143.1049  162.8933 C.ar    1  UNL1        0.0259
     25 C         141.4378  141.8497  163.6725 C.ar    1  UNL1        0.0887
     26 S         139.7865  145.2635  162.5024 S.O2    1  UNL1        0.0105
     27 C         139.5272  146.5187  161.7232 C.3     1  UNL1        0.1816
     28 O         138.3808  144.8103  162.2402 O.2     1  UNL1       -0.1686
     29 O         141.1922  145.7166  162.7646 O.2     1  UNL1       -0.1686
     30 O         140.8237  140.2426  165.6193 O.3     1  UNL1       -0.4790
     31 C         138.7270  138.7721  166.0569 C.3     1  UNL1        0.0472
     32 C         140.0225  139.0061  165.3379 C.3     1  UNL1        0.1658
     33 C         140.5167  138.0037  164.3374 C.3     1  UNL1        0.0368
     34 C         141.8240  137.9189  165.0680 C.3     1  UNL1        0.0036
     35 C         139.2094  138.0884  163.6068 C.3     1  UNL1        0.0036
     36 C         141.0108  137.0013  163.3369 C.3     1  UNL1        0.0036
@<TRIPOS>BOND
     1    32    31    1
     2    32    30    1
     3    30    20    1
     4    20    21   ar
     5    21    22   ar
     6    22    23   ar
     7    23    26    1
     8    26    27    1
     9    26    28    2
    10    26    29    2
    11    23    24   ar
    12    24    25   ar
    13    25     1    1
    14     1     2    2
    15     1     3   am
    16     3     4    1
    17     4     5    1
    18     5     6    1
    19     6     9    1
    20     9    10   ar
    21    10    11   ar
    22    11    12   ar
    23    12    16    1
    24    16    17    1
    25    16    18    1
    26    16    19    1
    27    12    13   ar
    28    13    14   ar
    29    14    15    1
    30     6     7    1
    31     7     8    1
    32    32    33    1
    33    33    34    1
    34    33    35    1
    35    33    36    1
    36    25    20   ar
    37     8     3    1
    38    14     9   ar
@<TRIPOS>MOLECULE
*****
 36 38 0 0 0
SMALL
GASTEIGER

@<TRIPOS>ATOM
      1 C         139.2659  141.1751  164.5495 C.2     1  UNL1        0.2521
      2 O         137.9536  140.5992  164.9920 O.2     1  UNL1       -0.2698
      3 N         139.3746  141.8580  163.2184 N.am    1  UNL1       -0.2725
      4 C         140.6870  142.4340  162.7758 C.3     1  UNL1        0.1152
      5 C         140.7957  143.1169  161.4447 C.3     1  UNL1        0.1137
      6 N         139.5918  143.2240  160.5562 N.pl3   1  UNL1       -0.2880
      7 C         138.2794  142.6481  160.9988 C.3     1  UNL1        0.1137
      8 C         138.1708  141.9651  162.3299 C.3     1  UNL1        0.1152
      9 C         139.7004  143.9069  159.2252 C.ar    1  UNL1        0.1594
     10 N         139.2307  143.2087  157.9834 N.ar    1  UNL1       -0.2269
     11 C         139.3394  143.8917  156.6523 C.ar    1  UNL1        0.1043
     12 C         139.9177  145.2729  156.5630 C.ar    1  UNL1        0.0929
     13 C         140.3873  145.9710  157.8047 C.ar    1  UNL1        0.0380
     14 C         140.2787  145.2881  159.1358 C.ar    1  UNL1        0.1715
     15 F         140.7484  145.9863  160.3776 F       1  UNL1       -0.2012
     16 C         140.0263  145.9558  155.2319 C.3     1  UNL1        0.4201
     17 F         140.1349  146.6388  153.9009 F       1  UNL1       -0.1658
     18 F         138.5700  146.3098  155.2947 F       1  UNL1       -0.1658
     19 F         141.4826  145.6019  155.1692 F       1  UNL1       -0.1658
     20 C         141.6151  140.1824  165.0457 C.ar    1  UNL1        0.1427
     21 C         142.8189  140.0754  165.9342 C.ar    1  UNL1        0.0384
     22 C         142.8773  140.8540  167.2149 C.ar    1  UNL1        0.0215
     23 C         141.7320  141.7396  167.6072 C.ar    1  UNL1        0.1061
     24 C         140.5282  141.8466  166.7187 C.ar    1  UNL1        0.0259
     25 C         140.4698  141.0680  165.4380 C.ar    1  UNL1        0.0887
     26 S         141.7905  142.5182  168.8880 S.O2    1  UNL1        0.0105
     27 C         141.8489  143.2968  170.1687 C.3     1  UNL1        0.1816
     28 O         143.2795  142.6348  168.7491 O.2     1  UNL1       -0.1686
     29 O         140.3015  142.4016  169.0268 O.2     1  UNL1       -0.1686
     30 O         141.5566  139.4038  163.7649 O.3     1  UNL1       -0.4790
     31 C         141.2402  136.9200  164.4579 C.3     1  UNL1        0.0472
     32 C         140.7732  138.1265  163.6988 C.3     1  UNL1        0.1658
     33 C         139.5225  138.0555  162.8736 C.3     1  UNL1        0.0368
     34 C         138.7910  137.4491  164.0342 C.3     1  UNL1        0.0036
     35 C         140.2540  138.6620  161.7129 C.3     1  UNL1        0.0036
     36 C         138.2720  137.9846  162.0483 C.3     1  UNL1        0.0036
@<TRIPOS>BOND
     1    32    31    1
     2    32    30    1
     3    30    20    1
     4    20    21   ar
     5    21    22   ar
     6    22    23   ar
     7    23    26    1
     8    26    27    1
     9    26    28    2
    10    26    29    2
    11    23    24   ar
    12    24    25   ar
    13    25     1    1
    14     1     2    2
    15     1     3   am
    16     3     4    1
    17     4     5    1
    18     5     6    1
    19     6     9    1
    20     9    10   ar
    21    10    11   ar
    22    11    12   ar
    23    12    16    1
    24    16    17    1
    25    16    18    1
    26    16    19    1
    27    12    13   ar
    28    13    14   ar
    29    14    15    1
    30     6     7    1
    31     7     8    1
    32    32    33    1
    33    33    34    1
    34    33    35    1
    35    33    36    1
    36    25    20   ar
    37     8     3    1
    38    14     9   ar
@<TRIPOS>MOLECULE
*****
 36 38 0 0 0
SMALL
GASTEIGER

@<TRIPOS>ATOM
      1 C         142.4850  139.8598  164.4634 C.2     1  UNL1        0.2521
      2 O         143.3895  138.6653  164.3939 O.2     1  UNL1       -0.2698
      3 N         141.7097  140.2850  163.2517 N.am    1  UNL1       -0.2725
      4 C         140.8051  141.4796  163.3213 C.3     1  UNL1        0.1152
      5 C         140.0298  141.9047  162.1096 C.3     1  UNL1        0.1137
      6 N         140.1590  141.1353  160.8284 N.pl3   1  UNL1       -0.2880
      7 C         141.0636  139.9408  160.7590 C.3     1  UNL1        0.1137
      8 C         141.8389  139.5156  161.9706 C.3     1  UNL1        0.1152
      9 C         139.3837  141.5604  159.6168 C.ar    1  UNL1        0.1594
     10 N         138.3005  140.6775  159.0716 N.ar    1  UNL1       -0.2269
     11 C         137.5252  141.1026  157.8599 C.ar    1  UNL1        0.1043
     12 C         137.8330  142.4107  157.1935 C.ar    1  UNL1        0.0929
     13 C         138.9162  143.2936  157.7387 C.ar    1  UNL1        0.0380
     14 C         139.6915  142.8685  158.9503 C.ar    1  UNL1        0.1715
     15 F         140.7747  143.7515  159.4955 F       1  UNL1       -0.2012
     16 C         137.0577  142.8359  155.9818 C.3     1  UNL1        0.4201
     17 F         136.2824  143.2610  154.7701 F       1  UNL1       -0.1658
     18 F         136.0785  141.7245  156.2184 F       1  UNL1       -0.1658
     19 F         138.0369  143.9472  155.7452 F       1  UNL1       -0.1658
     20 C         143.3299  141.7244  166.0633 C.ar    1  UNL1        0.1427
     21 C         143.2007  142.4938  167.3444 C.ar    1  UNL1        0.0384
     22 C         142.0972  142.1680  168.3068 C.ar    1  UNL1        0.0215
     23 C         141.1230  141.0729  167.9881 C.ar    1  UNL1        0.1061
     24 C         141.2523  140.3035  166.7070 C.ar    1  UNL1        0.0259
     25 C         142.3558  140.6293  165.7446 C.ar    1  UNL1        0.0887
     26 S         140.0195  140.7471  168.9505 S.O2    1  UNL1        0.0105
     27 C         138.9161  140.4214  169.9129 C.3     1  UNL1        0.1816
     28 O         140.4014  141.9309  169.7890 O.2     1  UNL1       -0.1686
     29 O         139.6377  139.5634  168.1121 O.2     1  UNL1       -0.1686
     30 O         144.4334  142.0501  165.1008 O.3     1  UNL1       -0.4790
     31 C         143.7884  144.4653  164.3929 C.3     1  UNL1        0.0472
     32 C         144.2141  143.0742  164.0270 C.3     1  UNL1        0.1658
     33 C         144.4203  142.7073  162.5873 C.3     1  UNL1        0.0368
     34 C         143.4240  143.7513  162.1784 C.3     1  UNL1        0.0036
     35 C         145.4167  141.6633  162.9961 C.3     1  UNL1        0.0036
     36 C         144.6266  142.3404  161.1476 C.3     1  UNL1        0.0036
@<TRIPOS>BOND
     1    32    31    1
     2    32    30    1
     3    30    20    1
     4    20    21   ar
     5    21    22   ar
     6    22    23   ar
     7    23    26    1
     8    26    27    1
     9    26    28    2
    10    26    29    2
    11    23    24   ar
    12    24    25   ar
    13    25     1    1
    14     1     2    2
    15     1     3   am
    16     3     4    1
    17     4     5    1
    18     5     6    1
    19     6     9    1
    20     9    10   ar
    21    10    11   ar
    22    11    12   ar
    23    12    16    1
    24    16    17    1
    25    16    18    1
    26    16    19    1
    27    12    13   ar
    28    13    14   ar
    29    14    15    1
    30     6     7    1
    31     7     8    1
    32    32    33    1
    33    33    34    1
    34    33    35    1
    35    33    36    1
    36    25    20   ar
    37     8     3    1
    38    14     9   ar
