@<TRIPOS>MOLECULE
*****
 51 58 0 0 0
SMALL
GASTEIGER

@<TRIPOS>ATOM
      1 C         141.6171  141.8503  164.9143 C.3     1  UNL1        0.0236
      2 C         141.6042  140.9441  163.7190 C.3     1  UNL1        0.0257
      3 C         141.6435  141.5254  162.3367 C.3     1  UNL1        0.0940
      4 N         141.6955  143.0128  162.1498 N.am    1  UNL1       -0.2760
      5 C         141.7347  143.5940  160.7675 C.2     1  UNL1        0.2499
      6 O         141.7867  145.0814  160.5805 O.2     1  UNL1       -0.2699
      7 C         141.7083  143.9189  163.3451 C.3     1  UNL1        0.0940
      8 C         141.6691  143.3377  164.7273 C.3     1  UNL1        0.0257
      9 C         141.7219  142.6878  159.5723 C.ar    1  UNL1        0.0656
     10 C         143.0142  142.2443  158.9533 C.ar    1  UNL1        0.0276
     11 C         143.0013  141.3381  157.7581 C.ar    1  UNL1        0.1494
     12 C         141.6960  140.8753  157.1818 C.ar    1  UNL1        0.1594
     13 F         141.6832  139.9691  155.9865 F       1  UNL1       -0.2027
     14 C         140.4037  141.3188  157.8007 C.ar    1  UNL1        0.0426
     15 C         140.4166  142.2251  158.9959 C.ar    1  UNL1        0.0643
     16 CL        139.1242  142.6686  159.6149 Cl      1  UNL1       -0.0820
     17 S         144.2937  140.8946  157.1392 S.O2    1  UNL1        0.0623
     18 O         144.1546  141.9558  156.0883 O.2     1  UNL1       -0.1529
     19 O         144.4328  139.8333  158.1901 O.2     1  UNL1       -0.1529
     20 N         145.5861  140.4511  156.5202 N.3     1  UNL1       -0.1807
     21 H         145.3443  139.8520  155.7309 H       1  UNL1        0.1487
     22 C         146.5608  141.4698  156.0080 C.3     1  UNL1        0.0756
     23 C         147.6762  142.4410  156.2579 C.3     1  UNL1        0.0188
     24 C         147.1334  142.2629  154.8710 C.3     1  UNL1        0.0188
     25 C         141.6111  142.2934  166.3474 C.ar    1  UNL1       -0.0204
     26 C         140.3709  142.8917  166.9423 C.ar    1  UNL1       -0.0041
     27 C         140.3650  143.3348  168.3754 C.ar    1  UNL1        0.0020
     28 C         141.5992  143.1795  169.2135 C.ar    1  UNL1        0.0296
     29 C         142.8395  142.5812  168.6186 C.ar    1  UNL1        0.1398
     30 F         144.0736  142.4259  169.4567 F       1  UNL1       -0.2042
     31 C         142.8453  142.1381  167.1855 C.ar    1  UNL1        0.0254
     32 C         141.5630  140.5168  165.5990 C.3     1  UNL1        0.0215
     33 C         140.3276  139.6719  165.4988 C.3     1  UNL1        0.0723
     34 C         140.2663  139.6363  165.3588 C.3     1  UNL1        0.0893
     35 C         139.2886  140.7497  165.5924 C.3     1  UNL1        0.0386
     36 C         138.2475  141.0627  164.5589 C.3     1  UNL1        0.0594
     37 C         137.4204  141.0191  163.3082 C.3     1  UNL1        0.0174
     38 C         137.9483  139.9142  162.4418 C.3     1  UNL1        0.0174
     39 C         139.1016  139.2750  163.1570 C.3     1  UNL1        0.0594
     40 C         140.2029  138.8361  164.0917 C.3     1  UNL1        0.0386
     41 N         139.2865  139.9849  164.4654 N.3     1  UNL1       -0.2751
     42 C         142.9219  138.5609  164.6608 C.3     1  UNL1        0.0718
     43 C         142.6782  138.7759  166.1252 C.ar    1  UNL1        0.1207
     44 N         143.3785  138.6170  167.4422 N.ar    1  UNL1       -0.2309
     45 C         142.4405  139.0662  168.5231 C.ar    1  UNL1        0.0983
     46 C         142.5866  139.1341  170.0144 C.ar    1  UNL1        0.0206
     47 C         141.4526  139.6386  170.8568 C.ar    1  UNL1        0.0016
     48 C         140.1726  140.0751  170.2079 C.ar    1  UNL1        0.0016
     49 C         140.0266  140.0071  168.7166 C.ar    1  UNL1        0.0188
     50 C         141.1605  139.5027  167.8742 C.ar    1  UNL1        0.0785
     51 N         141.3075  139.3233  166.3922 N.ar    1  UNL1       -0.3167
@<TRIPOS>BOND
     1    42    43    1
     2    43    44   ar
     3    44    45   ar
     4    45    46   ar
     5    46    47   ar
     6    47    48   ar
     7    48    49   ar
     8    49    50   ar
     9    50    51   ar
    10    51    34    1
    11    34    35    1
    12    35    36    1
    13    36    37    1
    14    37    38    1
    15    38    39    1
    16    39    40    1
    17    39    41    1
    18    41    33    1
    19    33    32    1
    20    32     1    1
    21     1    25    1
    22    25    26   ar
    23    26    27   ar
    24    27    28   ar
    25    28    29   ar
    26    29    30    1
    27    29    31   ar
    28     1     2    1
    29     2     3    1
    30     3     4    1
    31     4     5   am
    32     5     6    2
    33     5     9    1
    34     9    10   ar
    35    10    11   ar
    36    11    17    1
    37    17    18    2
    38    17    19    2
    39    17    20    1
    40    20    22    1
    41    22    23    1
    42    23    24    1
    43    11    12   ar
    44    12    13    1
    45    12    14   ar
    46    14    15   ar
    47    15    16    1
    48     4     7    1
    49     7     8    1
    50    51    43   ar
    51    40    34    1
    52     8     1    1
    53    50    45   ar
    54    41    36    1
    55    31    25   ar
    56    15     9   ar
    57    24    22    1
    58    20    21    1
@<TRIPOS>MOLECULE
*****
 51 58 0 0 0
SMALL
GASTEIGER

@<TRIPOS>ATOM
      1 C         140.6369  141.3996  161.2826 C.3     1  UNL1        0.0236
      2 C         141.7940  140.6415  160.7025 C.3     1  UNL1        0.0257
      3 C         141.6200  139.8643  159.4315 C.3     1  UNL1        0.0940
      4 N         140.2888  139.8451  158.7404 N.am    1  UNL1       -0.2760
      5 C         140.1147  139.0678  157.4694 C.2     1  UNL1        0.2499
      6 O         138.7835  139.0486  156.7783 O.2     1  UNL1       -0.2699
      7 C         139.1316  140.6031  159.3205 C.3     1  UNL1        0.0940
      8 C         139.3057  141.3803  160.5915 C.3     1  UNL1        0.0257
      9 C         141.2719  138.3098  156.8894 C.ar    1  UNL1        0.0656
     10 C         141.3653  136.8245  157.0771 C.ar    1  UNL1        0.0276
     11 C         142.5225  136.0666  156.4971 C.ar    1  UNL1        0.1494
     12 C         143.5863  136.7939  155.7294 C.ar    1  UNL1        0.1594
     13 F         144.7435  136.0359  155.1494 F       1  UNL1       -0.2027
     14 C         143.4929  138.2792  155.5417 C.ar    1  UNL1        0.0426
     15 C         142.3357  139.0371  156.1217 C.ar    1  UNL1        0.0643
     16 CL        142.2423  140.5224  155.9340 Cl      1  UNL1       -0.0820
     17 S         142.6159  134.5813  156.6848 S.O2    1  UNL1        0.0623
     18 O         143.4102  134.7899  157.9400 O.2     1  UNL1       -0.1529
     19 O         141.8216  134.3728  155.4296 O.2     1  UNL1       -0.1529
     20 N         142.7093  133.0960  156.8725 N.3     1  UNL1       -0.1807
     21 H         142.2251  132.6684  156.0831 H       1  UNL1        0.1487
     22 C         144.0526  132.4350  156.9662 C.3     1  UNL1        0.0756
     23 C         145.1253  131.5808  156.3582 C.3     1  UNL1        0.0188
     24 C         145.3063  132.1442  157.7365 C.3     1  UNL1        0.0188
     25 C         139.8467  142.2692  162.2151 C.ar    1  UNL1       -0.0204
     26 C         139.3562  141.7172  163.5206 C.ar    1  UNL1       -0.0041
     27 C         138.5660  142.5868  164.4531 C.ar    1  UNL1        0.0020
     28 C         138.2664  144.0084  164.0799 C.ar    1  UNL1        0.0296
     29 C         138.7570  144.5605  162.7742 C.ar    1  UNL1        0.1398
     30 F         138.4574  145.9820  162.4011 F       1  UNL1       -0.2042
     31 C         139.5472  143.6907  161.8419 C.ar    1  UNL1        0.0254
     32 C         141.6936  141.7208  162.2974 C.3     1  UNL1        0.0215
     33 C         142.8484  142.6027  161.9245 C.3     1  UNL1        0.0723
     34 C         142.9380  142.5706  161.7997 C.3     1  UNL1        0.0893
     35 C         142.1131  143.5737  161.0489 C.3     1  UNL1        0.0386
     36 C         142.4060  143.8554  159.6050 C.3     1  UNL1        0.0594
     37 C         143.0311  143.8157  158.2420 C.3     1  UNL1        0.0174
     38 C         144.1527  142.8202  158.2753 C.3     1  UNL1        0.0174
     39 C         144.2208  142.2446  159.6588 C.3     1  UNL1        0.0594
     40 C         144.0557  141.8495  161.1065 C.3     1  UNL1        0.0386
     41 N         143.1412  142.8844  160.4807 N.3     1  UNL1       -0.2751
     42 C         142.2782  144.7002  163.7297 C.3     1  UNL1        0.0718
     43 C         142.3021  143.3086  164.2889 C.ar    1  UNL1        0.1207
     44 N         142.0888  142.5879  165.5870 N.ar    1  UNL1       -0.2309
     45 C         142.3000  141.1228  165.3440 C.ar    1  UNL1        0.0983
     46 C         142.2237  139.9332  166.2544 C.ar    1  UNL1        0.0206
     47 C         142.4912  138.5588  165.7165 C.ar    1  UNL1        0.0016
     48 C         142.8350  138.3740  164.2681 C.ar    1  UNL1        0.0016
     49 C         142.9114  139.5636  163.3577 C.ar    1  UNL1        0.0188
     50 C         142.6439  140.9381  163.8957 C.ar    1  UNL1        0.0785
     51 N         142.6451  142.2889  163.2436 N.ar    1  UNL1       -0.3167
@<TRIPOS>BOND
     1    42    43    1
     2    43    44   ar
     3    44    45   ar
     4    45    46   ar
     5    46    47   ar
     6    47    48   ar
     7    48    49   ar
     8    49    50   ar
     9    50    51   ar
    10    51    34    1
    11    34    35    1
    12    35    36    1
    13    36    37    1
    14    37    38    1
    15    38    39    1
    16    39    40    1
    17    39    41    1
    18    41    33    1
    19    33    32    1
    20    32     1    1
    21     1    25    1
    22    25    26   ar
    23    26    27   ar
    24    27    28   ar
    25    28    29   ar
    26    29    30    1
    27    29    31   ar
    28     1     2    1
    29     2     3    1
    30     3     4    1
    31     4     5   am
    32     5     6    2
    33     5     9    1
    34     9    10   ar
    35    10    11   ar
    36    11    17    1
    37    17    18    2
    38    17    19    2
    39    17    20    1
    40    20    22    1
    41    22    23    1
    42    23    24    1
    43    11    12   ar
    44    12    13    1
    45    12    14   ar
    46    14    15   ar
    47    15    16    1
    48     4     7    1
    49     7     8    1
    50    51    43   ar
    51    40    34    1
    52     8     1    1
    53    50    45   ar
    54    41    36    1
    55    31    25   ar
    56    15     9   ar
    57    24    22    1
    58    20    21    1
@<TRIPOS>MOLECULE
*****
 51 58 0 0 0
SMALL
GASTEIGER

@<TRIPOS>ATOM
      1 C         139.9387  140.1361  162.2530 C.3     1  UNL1        0.0236
      2 C         140.6221  141.2520  161.5197 C.3     1  UNL1        0.0257
      3 C         140.3997  141.4285  160.0468 C.3     1  UNL1        0.0940
      4 N         139.4940  140.4891  159.3072 N.am    1  UNL1       -0.2760
      5 C         139.2716  140.6656  157.8343 C.2     1  UNL1        0.2499
      6 O         138.3659  139.7262  157.0946 O.2     1  UNL1       -0.2699
      7 C         138.8106  139.3732  160.0405 C.3     1  UNL1        0.0940
      8 C         139.0329  139.1966  161.5133 C.3     1  UNL1        0.0257
      9 C         139.9550  141.7816  157.1011 C.ar    1  UNL1        0.0656
     10 C         139.2217  143.0621  156.8320 C.ar    1  UNL1        0.0276
     11 C         139.9052  144.1780  156.0988 C.ar    1  UNL1        0.1494
     12 C         141.3220  144.0134  155.6347 C.ar    1  UNL1        0.1594
     13 F         142.0055  145.1294  154.9016 F       1  UNL1       -0.2027
     14 C         142.0554  142.7329  155.9038 C.ar    1  UNL1        0.0426
     15 C         141.3719  141.6170  156.6370 C.ar    1  UNL1        0.0643
     16 CL        142.1053  140.3364  156.9061 Cl      1  UNL1       -0.0820
     17 S         139.1718  145.4585  155.8297 S.O2    1  UNL1        0.0623
     18 O         138.5312  144.8382  154.6235 O.2     1  UNL1       -0.1529
     19 O         139.8123  146.0788  157.0359 O.2     1  UNL1       -0.1529
     20 N         138.4383  146.7391  155.5606 N.3     1  UNL1       -0.1807
     21 H         138.1116  147.0864  156.4623 H       1  UNL1        0.1487
     22 C         139.1425  147.8793  154.8867 C.3     1  UNL1        0.0756
     23 C         139.3884  149.3521  154.7440 C.3     1  UNL1        0.0188
     24 C         140.1164  148.3812  153.8624 C.3     1  UNL1        0.0188
     25 C         139.5192  139.2380  163.3789 C.ar    1  UNL1       -0.0204
     26 C         139.9669  137.8067  163.4032 C.ar    1  UNL1       -0.0041
     27 C         139.5474  136.9086  164.5291 C.ar    1  UNL1        0.0020
     28 C         138.6803  137.4421  165.6307 C.ar    1  UNL1        0.0296
     29 C         138.2326  138.8736  165.6064 C.ar    1  UNL1        0.1398
     30 F         137.3655  139.4069  166.7080 F       1  UNL1       -0.2042
     31 C         138.6521  139.7715  164.4804 C.ar    1  UNL1        0.0254
     32 C         140.6987  140.7636  163.3836 C.3     1  UNL1        0.0215
     33 C         142.1866  140.5948  163.4722 C.3     1  UNL1        0.0723
     34 C         142.2740  140.6171  163.3436 C.3     1  UNL1        0.0893
     35 C         142.3258  139.1232  163.2172 C.3     1  UNL1        0.0386
     36 C         143.0779  138.4922  162.0831 C.3     1  UNL1        0.0594
     37 C         143.9088  138.3125  160.8473 C.3     1  UNL1        0.0174
     38 C         144.2832  139.6730  160.3385 C.3     1  UNL1        0.0174
     39 C         143.6837  140.6936  161.2599 C.3     1  UNL1        0.0594
     40 C         142.9742  141.4797  162.3360 C.3     1  UNL1        0.0386
     41 N         142.9387  139.9638  162.3381 N.3     1  UNL1       -0.2751
     42 C         142.1570  139.4148  166.0337 C.3     1  UNL1        0.0718
     43 C         141.4111  140.7061  165.8720 C.ar    1  UNL1        0.1207
     44 N         140.5693  141.6550  166.6726 N.ar    1  UNL1       -0.2309
     45 C         140.1598  142.7834  165.7732 C.ar    1  UNL1        0.0983
     46 C         139.3268  144.0073  166.0141 C.ar    1  UNL1        0.0206
     47 C         139.0827  144.9798  164.8985 C.ar    1  UNL1        0.0016
     48 C         139.6714  144.7284  163.5420 C.ar    1  UNL1        0.0016
     49 C         140.5043  143.5044  163.3011 C.ar    1  UNL1        0.0188
     50 C         140.7485  142.5319  164.4166 C.ar    1  UNL1        0.0785
     51 N         141.5219  141.2481  164.4778 N.ar    1  UNL1       -0.3167
@<TRIPOS>BOND
     1    42    43    1
     2    43    44   ar
     3    44    45   ar
     4    45    46   ar
     5    46    47   ar
     6    47    48   ar
     7    48    49   ar
     8    49    50   ar
     9    50    51   ar
    10    51    34    1
    11    34    35    1
    12    35    36    1
    13    36    37    1
    14    37    38    1
    15    38    39    1
    16    39    40    1
    17    39    41    1
    18    41    33    1
    19    33    32    1
    20    32     1    1
    21     1    25    1
    22    25    26   ar
    23    26    27   ar
    24    27    28   ar
    25    28    29   ar
    26    29    30    1
    27    29    31   ar
    28     1     2    1
    29     2     3    1
    30     3     4    1
    31     4     5   am
    32     5     6    2
    33     5     9    1
    34     9    10   ar
    35    10    11   ar
    36    11    17    1
    37    17    18    2
    38    17    19    2
    39    17    20    1
    40    20    22    1
    41    22    23    1
    42    23    24    1
    43    11    12   ar
    44    12    13    1
    45    12    14   ar
    46    14    15   ar
    47    15    16    1
    48     4     7    1
    49     7     8    1
    50    51    43   ar
    51    40    34    1
    52     8     1    1
    53    50    45   ar
    54    41    36    1
    55    31    25   ar
    56    15     9   ar
    57    24    22    1
    58    20    21    1
@<TRIPOS>MOLECULE
*****
 51 58 0 0 0
SMALL
GASTEIGER

@<TRIPOS>ATOM
      1 C         140.8269  141.4631  160.1438 C.3     1  UNL1        0.0236
      2 C         140.5114  140.0168  159.9011 C.3     1  UNL1        0.0257
      3 C         141.0235  139.3343  158.6674 C.3     1  UNL1        0.0940
      4 N         141.8509  140.0979  157.6764 N.am    1  UNL1       -0.2760
      5 C         142.3629  139.4154  156.4427 C.2     1  UNL1        0.2499
      6 O         143.1904  140.1790  155.4517 O.2     1  UNL1       -0.2699
      7 C         142.1663  141.5442  157.9191 C.3     1  UNL1        0.0940
      8 C         141.6544  142.2267  159.1527 C.3     1  UNL1        0.0257
      9 C         142.0475  137.9691  156.2002 C.ar    1  UNL1        0.0656
     10 C         143.0123  136.9073  156.6379 C.ar    1  UNL1        0.0276
     11 C         142.6967  135.4611  156.3953 C.ar    1  UNL1        0.1494
     12 C         141.4164  135.0767  155.7149 C.ar    1  UNL1        0.1594
     13 F         141.1009  133.6304  155.4723 F       1  UNL1       -0.2027
     14 C         140.4515  136.1385  155.2771 C.ar    1  UNL1        0.0426
     15 C         140.7671  137.5847  155.5198 C.ar    1  UNL1        0.0643
     16 CL        139.8023  138.6465  155.0820 Cl      1  UNL1       -0.0820
     17 S         143.6615  134.3993  156.8330 S.O2    1  UNL1        0.0623
     18 O         143.2860  134.6478  158.2638 O.2     1  UNL1       -0.1529
     19 O         144.0371  134.1507  155.4023 O.2     1  UNL1       -0.1529
     20 N         144.6264  133.3374  157.2709 N.3     1  UNL1       -0.1807
     21 H         144.5810  133.3000  158.2892 H       1  UNL1        0.1487
     22 C         144.4665  131.9296  156.7783 C.3     1  UNL1        0.0756
     23 C         144.7509  130.8717  155.7537 C.3     1  UNL1        0.0188
     24 C         143.9052  130.5493  156.9498 C.3     1  UNL1        0.0188
     25 C         140.8588  142.8062  160.8111 C.ar    1  UNL1       -0.0204
     26 C         139.6339  143.6718  160.8133 C.ar    1  UNL1       -0.0041
     27 C         139.6658  145.0149  161.4806 C.ar    1  UNL1        0.0020
     28 C         140.9228  145.4922  162.1457 C.ar    1  UNL1        0.0296
     29 C         142.1478  144.6264  162.1434 C.ar    1  UNL1        0.1398
     30 F         143.4046  145.1037  162.8084 F       1  UNL1       -0.2042
     31 C         142.1157  143.2834  161.4761 C.ar    1  UNL1        0.0254
     32 C         140.0105  141.1658  161.3665 C.3     1  UNL1        0.0215
     33 C         140.5426  140.2349  162.4156 C.3     1  UNL1        0.0723
     34 C         140.6046  140.0965  162.3753 C.3     1  UNL1        0.0893
     35 C         141.9485  140.7499  162.5068 C.3     1  UNL1        0.0386
     36 C         143.1958  139.9590  162.2449 C.3     1  UNL1        0.0594
     37 C         144.1252  138.8326  161.9021 C.3     1  UNL1        0.0174
     38 C         143.2937  137.6215  161.5990 C.3     1  UNL1        0.0174
     39 C         141.8504  137.9994  161.7545 C.3     1  UNL1        0.0594
     40 C         140.5083  138.6523  161.9819 C.3     1  UNL1        0.0386
     41 N         141.7899  139.4441  162.1537 N.3     1  UNL1       -0.2751
     42 C         138.0310  139.4772  161.0759 C.3     1  UNL1        0.0718
     43 C         138.0118  140.6414  162.0215 C.ar    1  UNL1        0.1207
     44 N         137.0594  141.6651  162.5647 N.ar    1  UNL1       -0.2309
     45 C         137.8163  142.5437  163.5161 C.ar    1  UNL1        0.0983
     46 C         137.3958  143.7194  164.3473 C.ar    1  UNL1        0.0206
     47 C         138.3955  144.4143  165.2235 C.ar    1  UNL1        0.0016
     48 C         139.8157  143.9336  165.2683 C.ar    1  UNL1        0.0016
     49 C         140.2362  142.7580  164.4371 C.ar    1  UNL1        0.0188
     50 C         139.2365  142.0631  163.5609 C.ar    1  UNL1        0.0785
     51 N         139.3573  140.8874  162.6372 N.ar    1  UNL1       -0.3167
@<TRIPOS>BOND
     1    42    43    1
     2    43    44   ar
     3    44    45   ar
     4    45    46   ar
     5    46    47   ar
     6    47    48   ar
     7    48    49   ar
     8    49    50   ar
     9    50    51   ar
    10    51    34    1
    11    34    35    1
    12    35    36    1
    13    36    37    1
    14    37    38    1
    15    38    39    1
    16    39    40    1
    17    39    41    1
    18    41    33    1
    19    33    32    1
    20    32     1    1
    21     1    25    1
    22    25    26   ar
    23    26    27   ar
    24    27    28   ar
    25    28    29   ar
    26    29    30    1
    27    29    31   ar
    28     1     2    1
    29     2     3    1
    30     3     4    1
    31     4     5   am
    32     5     6    2
    33     5     9    1
    34     9    10   ar
    35    10    11   ar
    36    11    17    1
    37    17    18    2
    38    17    19    2
    39    17    20    1
    40    20    22    1
    41    22    23    1
    42    23    24    1
    43    11    12   ar
    44    12    13    1
    45    12    14   ar
    46    14    15   ar
    47    15    16    1
    48     4     7    1
    49     7     8    1
    50    51    43   ar
    51    40    34    1
    52     8     1    1
    53    50    45   ar
    54    41    36    1
    55    31    25   ar
    56    15     9   ar
    57    24    22    1
    58    20    21    1
@<TRIPOS>MOLECULE
*****
 51 58 0 0 0
SMALL
GASTEIGER

@<TRIPOS>ATOM
      1 C         140.8006  141.2010  161.1487 C.3     1  UNL1        0.0236
      2 C         140.2640  139.9803  160.4617 C.3     1  UNL1        0.0257
      3 C         141.0381  139.3478  159.3433 C.3     1  UNL1        0.0940
      4 N         142.3487  139.9361  158.9118 N.am    1  UNL1       -0.2760
      5 C         143.1228  139.3036  157.7934 C.2     1  UNL1        0.2499
      6 O         144.4334  139.8919  157.3620 O.2     1  UNL1       -0.2699
      7 C         142.8853  141.1568  159.5988 C.3     1  UNL1        0.0940
      8 C         142.1113  141.7893  160.7171 C.3     1  UNL1        0.0257
      9 C         142.5862  138.0829  157.1065 C.ar    1  UNL1        0.0656
     10 C         143.2687  136.7595  157.2873 C.ar    1  UNL1        0.0276
     11 C         142.7320  135.5388  156.6004 C.ar    1  UNL1        0.1494
     12 C         141.5127  135.6415  155.7326 C.ar    1  UNL1        0.1594
     13 F         140.9761  134.4208  155.0457 F       1  UNL1       -0.2027
     14 C         140.8302  136.9650  155.5518 C.ar    1  UNL1        0.0426
     15 C         141.3669  138.1857  156.2388 C.ar    1  UNL1        0.0643
     16 CL        140.6844  139.5091  156.0579 Cl      1  UNL1       -0.0820
     17 S         143.4145  134.2154  156.7812 S.O2    1  UNL1        0.0623
     18 O         143.6347  134.1266  155.3001 O.2     1  UNL1       -0.1529
     19 O         143.1942  134.3041  158.2622 O.2     1  UNL1       -0.1529
     20 N         144.0971  132.8919  156.9619 N.3     1  UNL1       -0.1807
     21 H         144.0274  132.6575  157.9522 H       1  UNL1        0.1487
     22 C         143.6206  131.6919  156.1983 C.3     1  UNL1        0.0756
     23 C         142.5898  130.6284  155.9609 C.3     1  UNL1        0.0188
     24 C         143.8263  130.6770  155.1132 C.3     1  UNL1        0.0188
     25 C         140.8932  142.3569  162.1002 C.ar    1  UNL1       -0.0204
     26 C         141.2066  142.1142  163.5468 C.ar    1  UNL1       -0.0041
     27 C         141.2992  143.2701  164.4984 C.ar    1  UNL1        0.0020
     28 C         141.0784  144.6686  164.0032 C.ar    1  UNL1        0.0296
     29 C         140.7649  144.9114  162.5565 C.ar    1  UNL1        0.1398
     30 F         140.5441  146.3099  162.0614 F       1  UNL1       -0.2042
     31 C         140.6723  143.7554  161.6051 C.ar    1  UNL1        0.0254
     32 C         139.5221  141.0142  161.9105 C.3     1  UNL1        0.0215
     33 C         138.2053  141.2790  161.2426 C.3     1  UNL1        0.0723
     34 C         138.1735  141.2159  161.1025 C.3     1  UNL1        0.0893
     35 C         138.5462  142.5423  160.5092 C.3     1  UNL1        0.0386
     36 C         138.4855  142.7432  159.0239 C.3     1  UNL1        0.0594
     37 C         138.2840  142.4969  157.5581 C.3     1  UNL1        0.0174
     38 C         137.8186  141.0814  157.3856 C.3     1  UNL1        0.0174
     39 C         137.7325  140.4529  158.7449 C.3     1  UNL1        0.0594
     40 C         137.7401  140.0906  160.2105 C.3     1  UNL1        0.0386
     41 N         138.1447  141.4800  159.7575 N.3     1  UNL1       -0.2751
     42 C         137.5468  143.3655  163.0213 C.3     1  UNL1        0.0718
     43 C         137.9325  142.0502  163.6305 C.ar    1  UNL1        0.1207
     44 N         138.1191  141.4186  164.9782 N.ar    1  UNL1       -0.2309
     45 C         138.5360  139.9931  164.7683 C.ar    1  UNL1        0.0983
     46 C         138.8601  138.8899  165.7316 C.ar    1  UNL1        0.0206
     47 C         139.2554  137.5374  165.2175 C.ar    1  UNL1        0.0016
     48 C         139.3265  137.2880  163.7401 C.ar    1  UNL1        0.0016
     49 C         139.0024  138.3911  162.7768 C.ar    1  UNL1        0.0188
     50 C         138.6072  139.7437  163.2909 C.ar    1  UNL1        0.0785
     51 N         138.2342  141.0150  162.5878 N.ar    1  UNL1       -0.3167
@<TRIPOS>BOND
     1    42    43    1
     2    43    44   ar
     3    44    45   ar
     4    45    46   ar
     5    46    47   ar
     6    47    48   ar
     7    48    49   ar
     8    49    50   ar
     9    50    51   ar
    10    51    34    1
    11    34    35    1
    12    35    36    1
    13    36    37    1
    14    37    38    1
    15    38    39    1
    16    39    40    1
    17    39    41    1
    18    41    33    1
    19    33    32    1
    20    32     1    1
    21     1    25    1
    22    25    26   ar
    23    26    27   ar
    24    27    28   ar
    25    28    29   ar
    26    29    30    1
    27    29    31   ar
    28     1     2    1
    29     2     3    1
    30     3     4    1
    31     4     5   am
    32     5     6    2
    33     5     9    1
    34     9    10   ar
    35    10    11   ar
    36    11    17    1
    37    17    18    2
    38    17    19    2
    39    17    20    1
    40    20    22    1
    41    22    23    1
    42    23    24    1
    43    11    12   ar
    44    12    13    1
    45    12    14   ar
    46    14    15   ar
    47    15    16    1
    48     4     7    1
    49     7     8    1
    50    51    43   ar
    51    40    34    1
    52     8     1    1
    53    50    45   ar
    54    41    36    1
    55    31    25   ar
    56    15     9   ar
    57    24    22    1
    58    20    21    1
@<TRIPOS>MOLECULE
*****
 51 58 0 0 0
SMALL
GASTEIGER

@<TRIPOS>ATOM
      1 C         140.1998  141.9637  161.0081 C.3     1  UNL1        0.0236
      2 C         141.3445  141.7405  160.0647 C.3     1  UNL1        0.0257
      3 C         141.1079  141.0704  158.7437 C.3     1  UNL1        0.0940
      4 N         139.7267  140.6235  158.3661 N.am    1  UNL1       -0.2760
      5 C         139.4902  139.9534  157.0451 C.2     1  UNL1        0.2499
      6 O         138.1090  139.5066  156.6674 O.2     1  UNL1       -0.2699
      7 C         138.5821  140.8468  159.3095 C.3     1  UNL1        0.0940
      8 C         138.8186  141.5168  160.6304 C.3     1  UNL1        0.0257
      9 C         140.6349  139.7302  156.1018 C.ar    1  UNL1        0.0656
     10 C         141.4385  138.4663  156.1833 C.ar    1  UNL1        0.0276
     11 C         142.5832  138.2432  155.2400 C.ar    1  UNL1        0.1494
     12 C         142.9242  139.2840  154.2150 C.ar    1  UNL1        0.1594
     13 F         144.0689  139.0608  153.2717 F       1  UNL1       -0.2027
     14 C         142.1206  140.5479  154.1335 C.ar    1  UNL1        0.0426
     15 C         140.9759  140.7710  155.0768 C.ar    1  UNL1        0.0643
     16 CL        140.1723  142.0349  154.9952 Cl      1  UNL1       -0.0820
     17 S         143.3869  136.9793  155.3216 S.O2    1  UNL1        0.0623
     18 O         144.4507  137.7053  156.0904 O.2     1  UNL1       -0.1529
     19 O         142.3230  136.2532  154.5527 O.2     1  UNL1       -0.1529
     20 N         144.1906  135.7153  155.4032 N.3     1  UNL1       -0.1807
     21 H         145.1191  135.9777  155.7339 H       1  UNL1        0.1487
     22 C         143.7246  134.5851  156.2724 C.3     1  UNL1        0.0756
     23 C         143.7186  133.8829  157.5979 C.3     1  UNL1        0.0188
     24 C         142.9236  133.3299  156.4524 C.3     1  UNL1        0.0188
     25 C         139.4436  142.3941  162.2300 C.ar    1  UNL1       -0.0204
     26 C         138.4814  143.5421  162.1509 C.ar    1  UNL1       -0.0041
     27 C         137.7252  143.9724  163.3728 C.ar    1  UNL1        0.0020
     28 C         137.9312  143.2546  164.6738 C.ar    1  UNL1        0.0296
     29 C         138.8934  142.1066  164.7528 C.ar    1  UNL1        0.1398
     30 F         139.0993  141.3889  166.0537 F       1  UNL1       -0.2042
     31 C         139.6496  141.6763  163.5308 C.ar    1  UNL1        0.0254
     32 C         141.3184  142.5600  161.8101 C.3     1  UNL1        0.0215
     33 C         141.9664  143.8360  161.3604 C.3     1  UNL1        0.0723
     34 C         142.0035  143.8544  161.2090 C.3     1  UNL1        0.0893
     35 C         140.7589  144.6828  161.0867 C.3     1  UNL1        0.0386
     36 C         140.3874  145.2876  159.7652 C.3     1  UNL1        0.0594
     37 C         140.4119  145.6751  158.3163 C.3     1  UNL1        0.0174
     38 C         141.6344  145.0677  157.6947 C.3     1  UNL1        0.0174
     39 C         142.3656  144.3049  158.7593 C.3     1  UNL1        0.0594
     40 C         142.8764  143.6308  160.0099 C.3     1  UNL1        0.0386
     41 N         141.5949  144.4407  160.0391 N.3     1  UNL1       -0.2751
     42 C         141.3396  145.1330  163.7819 C.3     1  UNL1        0.0718
     43 C         142.0774  143.8307  163.8809 C.ar    1  UNL1        0.1207
     44 N         142.6278  142.8977  164.9185 N.ar    1  UNL1       -0.2309
     45 C         143.2656  141.7400  164.2093 C.ar    1  UNL1        0.0983
     46 C         143.9685  140.5160  164.7168 C.ar    1  UNL1        0.0206
     47 C         144.5151  139.5094  163.7484 C.ar    1  UNL1        0.0016
     48 C         144.3589  139.7268  162.2725 C.ar    1  UNL1        0.0016
     49 C         143.6560  140.9509  161.7650 C.ar    1  UNL1        0.0188
     50 C         143.1094  141.9575  162.7334 C.ar    1  UNL1        0.0785
     51 N         142.3750  143.2496  162.5305 N.ar    1  UNL1       -0.3167
@<TRIPOS>BOND
     1    42    43    1
     2    43    44   ar
     3    44    45   ar
     4    45    46   ar
     5    46    47   ar
     6    47    48   ar
     7    48    49   ar
     8    49    50   ar
     9    50    51   ar
    10    51    34    1
    11    34    35    1
    12    35    36    1
    13    36    37    1
    14    37    38    1
    15    38    39    1
    16    39    40    1
    17    39    41    1
    18    41    33    1
    19    33    32    1
    20    32     1    1
    21     1    25    1
    22    25    26   ar
    23    26    27   ar
    24    27    28   ar
    25    28    29   ar
    26    29    30    1
    27    29    31   ar
    28     1     2    1
    29     2     3    1
    30     3     4    1
    31     4     5   am
    32     5     6    2
    33     5     9    1
    34     9    10   ar
    35    10    11   ar
    36    11    17    1
    37    17    18    2
    38    17    19    2
    39    17    20    1
    40    20    22    1
    41    22    23    1
    42    23    24    1
    43    11    12   ar
    44    12    13    1
    45    12    14   ar
    46    14    15   ar
    47    15    16    1
    48     4     7    1
    49     7     8    1
    50    51    43   ar
    51    40    34    1
    52     8     1    1
    53    50    45   ar
    54    41    36    1
    55    31    25   ar
    56    15     9   ar
    57    24    22    1
    58    20    21    1
@<TRIPOS>MOLECULE
*****
 51 58 0 0 0
SMALL
GASTEIGER

@<TRIPOS>ATOM
      1 C         140.3039  140.9245  161.5022 C.3     1  UNL1        0.0236
      2 C         141.4853  140.1941  160.9358 C.3     1  UNL1        0.0257
      3 C         141.3941  139.5572  159.5808 C.3     1  UNL1        0.0940
      4 N         140.1216  139.6507  158.7922 N.am    1  UNL1       -0.2760
      5 C         140.0305  139.0138  157.4371 C.2     1  UNL1        0.2499
      6 O         138.7580  139.1073  156.6485 O.2     1  UNL1       -0.2699
      7 C         138.9402  140.3811  159.3586 C.3     1  UNL1        0.0940
      8 C         139.0313  141.0180  160.7135 C.3     1  UNL1        0.0257
      9 C         141.2119  138.2834  156.8708 C.ar    1  UNL1        0.0656
     10 C         141.3073  136.7926  157.0060 C.ar    1  UNL1        0.0276
     11 C         142.4888  136.0623  156.4396 C.ar    1  UNL1        0.1494
     12 C         143.5749  136.8228  155.7381 C.ar    1  UNL1        0.1594
     13 F         144.7563  136.0924  155.1717 F       1  UNL1       -0.2027
     14 C         143.4794  138.3136  155.6029 C.ar    1  UNL1        0.0426
     15 C         142.2980  139.0439  156.1693 C.ar    1  UNL1        0.0643
     16 CL        142.2025  140.5348  156.0341 Cl      1  UNL1       -0.0820
     17 S         142.5842  134.5714  156.5748 S.O2    1  UNL1        0.0623
     18 O         143.3500  134.7364  157.8540 O.2     1  UNL1       -0.1529
     19 O         141.8185  134.4064  155.2956 O.2     1  UNL1       -0.1529
     20 N         142.6797  133.0805  156.7100 N.3     1  UNL1       -0.1807
     21 H         142.2704  132.6814  155.8652 H       1  UNL1        0.1487
     22 C         144.0180  132.4282  156.8926 C.3     1  UNL1        0.0756
     23 C         145.2110  132.1289  157.7513 C.3     1  UNL1        0.0188
     24 C         145.1431  131.5978  156.3501 C.3     1  UNL1        0.0188
     25 C         139.4630  141.7182  162.4578 C.ar    1  UNL1       -0.0204
     26 C         138.2576  141.0922  163.0943 C.ar    1  UNL1       -0.0041
     27 C         137.4167  141.8858  164.0499 C.ar    1  UNL1        0.0020
     28 C         137.7812  143.3055  164.3687 C.ar    1  UNL1        0.0296
     29 C         138.9866  143.9315  163.7321 C.ar    1  UNL1        0.1398
     30 F         139.3510  145.3511  164.0510 F       1  UNL1       -0.2042
     31 C         139.8274  143.1378  162.7766 C.ar    1  UNL1        0.0254
     32 C         141.2843  141.1066  162.6227 C.3     1  UNL1        0.0215
     33 C         141.5877  139.9647  163.5469 C.3     1  UNL1        0.0723
     34 C         141.4869  139.9468  163.6660 C.3     1  UNL1        0.0893
     35 C         140.9652  138.7429  162.9390 C.3     1  UNL1        0.0386
     36 C         139.8455  137.9375  163.5288 C.3     1  UNL1        0.0594
     37 C         138.7671  137.4574  164.4543 C.3     1  UNL1        0.0174
     38 C         138.7232  138.3826  165.6342 C.3     1  UNL1        0.0174
     39 C         139.7744  139.4344  165.4379 C.3     1  UNL1        0.0594
     40 C         140.8890  140.3452  164.9826 C.3     1  UNL1        0.0386
     41 N         140.4681  139.1594  164.1367 N.3     1  UNL1       -0.2751
     42 C         143.5355  138.7646  161.9049 C.3     1  UNL1        0.0718
     43 C         143.6866  140.2324  162.1743 C.ar    1  UNL1        0.1207
     44 N         144.5902  141.3777  161.8255 N.ar    1  UNL1       -0.2309
     45 C         144.0687  142.6053  162.5118 C.ar    1  UNL1        0.0983
     46 C         144.5517  144.0252  162.5328 C.ar    1  UNL1        0.0206
     47 C         143.8088  145.0585  163.3267 C.ar    1  UNL1        0.0016
     48 C         142.5828  144.6719  164.0996 C.ar    1  UNL1        0.0016
     49 C         142.0998  143.2520  164.0787 C.ar    1  UNL1        0.0188
     50 C         142.8427  142.2187  163.2848 C.ar    1  UNL1        0.0785
     51 N         142.6066  140.7522  163.0762 N.ar    1  UNL1       -0.3167
@<TRIPOS>BOND
     1    42    43    1
     2    43    44   ar
     3    44    45   ar
     4    45    46   ar
     5    46    47   ar
     6    47    48   ar
     7    48    49   ar
     8    49    50   ar
     9    50    51   ar
    10    51    34    1
    11    34    35    1
    12    35    36    1
    13    36    37    1
    14    37    38    1
    15    38    39    1
    16    39    40    1
    17    39    41    1
    18    41    33    1
    19    33    32    1
    20    32     1    1
    21     1    25    1
    22    25    26   ar
    23    26    27   ar
    24    27    28   ar
    25    28    29   ar
    26    29    30    1
    27    29    31   ar
    28     1     2    1
    29     2     3    1
    30     3     4    1
    31     4     5   am
    32     5     6    2
    33     5     9    1
    34     9    10   ar
    35    10    11   ar
    36    11    17    1
    37    17    18    2
    38    17    19    2
    39    17    20    1
    40    20    22    1
    41    22    23    1
    42    23    24    1
    43    11    12   ar
    44    12    13    1
    45    12    14   ar
    46    14    15   ar
    47    15    16    1
    48     4     7    1
    49     7     8    1
    50    51    43   ar
    51    40    34    1
    52     8     1    1
    53    50    45   ar
    54    41    36    1
    55    31    25   ar
    56    15     9   ar
    57    24    22    1
    58    20    21    1
@<TRIPOS>MOLECULE
*****
 51 58 0 0 0
SMALL
GASTEIGER

@<TRIPOS>ATOM
      1 C         140.1192  140.5656  161.8236 C.3     1  UNL1        0.0236
      2 C         140.8440  141.5029  160.9038 C.3     1  UNL1        0.0257
      3 C         140.2532  141.8510  159.5698 C.3     1  UNL1        0.0940
      4 N         138.9374  141.2618  159.1555 N.am    1  UNL1       -0.2760
      5 C         138.3465  141.6099  157.8214 C.2     1  UNL1        0.2499
      6 O         137.0308  141.0207  157.4071 O.2     1  UNL1       -0.2699
      7 C         138.2125  140.3245  160.0753 C.3     1  UNL1        0.0940
      8 C         138.8033  139.9764  161.4093 C.3     1  UNL1        0.0257
      9 C         139.0715  142.5472  156.9017 C.ar    1  UNL1        0.0656
     10 C         138.7673  144.0157  156.9351 C.ar    1  UNL1        0.0276
     11 C         139.4923  144.9529  156.0154 C.ar    1  UNL1        0.1494
     12 C         140.5215  144.4217  155.0622 C.ar    1  UNL1        0.1594
     13 F         141.2464  145.3590  154.1425 F       1  UNL1       -0.2027
     14 C         140.8257  142.9533  155.0287 C.ar    1  UNL1        0.0426
     15 C         140.1007  142.0160  155.9485 C.ar    1  UNL1        0.0643
     16 CL        140.4049  140.5476  155.9151 Cl      1  UNL1       -0.0820
     17 S         139.1880  146.4213  156.0488 S.O2    1  UNL1        0.0623
     18 O         138.0965  146.2182  155.0402 O.2     1  UNL1       -0.1529
     19 O         140.2796  146.6245  157.0574 O.2     1  UNL1       -0.1529
     20 N         138.8838  147.8898  156.0822 N.3     1  UNL1       -0.1807
     21 H         139.3093  148.2595  156.9323 H       1  UNL1        0.1487
     22 C         139.3294  148.7738  154.9552 C.3     1  UNL1        0.0756
     23 C         139.5238  150.1448  154.3785 C.3     1  UNL1        0.0188
     24 C         139.9067  148.9340  153.5802 C.3     1  UNL1        0.0188
     25 C         139.8144  139.7324  163.0332 C.ar    1  UNL1       -0.0204
     26 C         138.7053  140.1333  163.9600 C.ar    1  UNL1       -0.0041
     27 C         138.4005  139.3001  165.1696 C.ar    1  UNL1        0.0020
     28 C         139.2050  138.0659  165.4522 C.ar    1  UNL1        0.0296
     29 C         140.3142  137.6650  164.5253 C.ar    1  UNL1        0.1398
     30 F         141.1185  136.4310  164.8079 F       1  UNL1       -0.2042
     31 C         140.6188  138.4983  163.3158 C.ar    1  UNL1        0.0254
     32 C         141.3290  140.8654  162.6579 C.3     1  UNL1        0.0215
     33 C         141.5153  142.2333  163.2447 C.3     1  UNL1        0.0723
     34 C         141.4899  142.3629  163.1598 C.3     1  UNL1        0.0893
     35 C         140.1335  142.4194  163.7981 C.3     1  UNL1        0.0386
     36 C         139.1828  143.5238  163.4426 C.3     1  UNL1        0.0594
     37 C         138.5930  144.7511  162.8134 C.3     1  UNL1        0.0174
     38 C         139.6102  145.3235  161.8713 C.3     1  UNL1        0.0174
     39 C         140.8287  144.4500  161.9181 C.3     1  UNL1        0.0594
     40 C         141.8954  143.4108  162.1662 C.3     1  UNL1        0.0386
     41 N         140.5646  143.3377  162.8893 N.3     1  UNL1       -0.2751
     42 C         143.5214  141.3507  161.2773 C.3     1  UNL1        0.0718
     43 C         143.5003  140.6855  162.6215 C.ar    1  UNL1        0.1207
     44 N         144.2131  139.6060  163.3808 N.ar    1  UNL1       -0.2309
     45 C         143.5940  139.5117  164.7438 C.ar    1  UNL1        0.0983
     46 C         143.8862  138.6279  165.9200 C.ar    1  UNL1        0.0206
     47 C         143.0829  138.7654  167.1793 C.ar    1  UNL1        0.0016
     48 C         141.9874  139.7866  167.2624 C.ar    1  UNL1        0.0016
     49 C         141.6952  140.6705  166.0862 C.ar    1  UNL1        0.0188
     50 C         142.4985  140.5330  164.8269 C.ar    1  UNL1        0.0785
     51 N         142.4406  141.2584  163.5153 N.ar    1  UNL1       -0.3167
@<TRIPOS>BOND
     1    42    43    1
     2    43    44   ar
     3    44    45   ar
     4    45    46   ar
     5    46    47   ar
     6    47    48   ar
     7    48    49   ar
     8    49    50   ar
     9    50    51   ar
    10    51    34    1
    11    34    35    1
    12    35    36    1
    13    36    37    1
    14    37    38    1
    15    38    39    1
    16    39    40    1
    17    39    41    1
    18    41    33    1
    19    33    32    1
    20    32     1    1
    21     1    25    1
    22    25    26   ar
    23    26    27   ar
    24    27    28   ar
    25    28    29   ar
    26    29    30    1
    27    29    31   ar
    28     1     2    1
    29     2     3    1
    30     3     4    1
    31     4     5   am
    32     5     6    2
    33     5     9    1
    34     9    10   ar
    35    10    11   ar
    36    11    17    1
    37    17    18    2
    38    17    19    2
    39    17    20    1
    40    20    22    1
    41    22    23    1
    42    23    24    1
    43    11    12   ar
    44    12    13    1
    45    12    14   ar
    46    14    15   ar
    47    15    16    1
    48     4     7    1
    49     7     8    1
    50    51    43   ar
    51    40    34    1
    52     8     1    1
    53    50    45   ar
    54    41    36    1
    55    31    25   ar
    56    15     9   ar
    57    24    22    1
    58    20    21    1
@<TRIPOS>MOLECULE
*****
 51 58 0 0 0
SMALL
GASTEIGER

@<TRIPOS>ATOM
      1 C         141.3801  141.9620  164.9615 C.3     1  UNL1        0.0236
      2 C         141.2592  141.0986  163.7409 C.3     1  UNL1        0.0257
      3 C         141.1663  141.7286  162.3828 C.3     1  UNL1        0.0940
      4 N         141.1944  143.2220  162.2453 N.am    1  UNL1       -0.2760
      5 C         141.1016  143.8520  160.8871 C.2     1  UNL1        0.2499
      6 O         141.1297  145.3454  160.7496 O.2     1  UNL1       -0.2699
      7 C         141.3154  144.0854  163.4659 C.3     1  UNL1        0.0940
      8 C         141.4083  143.4554  164.8240 C.3     1  UNL1        0.0257
      9 C         140.9806  142.9885  159.6666 C.ar    1  UNL1        0.0656
     10 C         139.6354  142.4847  159.2345 C.ar    1  UNL1        0.0276
     11 C         139.5145  141.6212  158.0140 C.ar    1  UNL1        0.1494
     12 C         140.7388  141.2615  157.2254 C.ar    1  UNL1        0.1594
     13 F         140.6179  140.3980  156.0049 F       1  UNL1       -0.2027
     14 C         142.0840  141.7653  157.6575 C.ar    1  UNL1        0.0426
     15 C         142.2049  142.6288  158.8781 C.ar    1  UNL1        0.0643
     16 CL        143.5501  143.1326  159.3101 Cl      1  UNL1       -0.0820
     17 S         138.1694  141.1174  157.5819 S.O2    1  UNL1        0.0623
     18 O         138.4188  139.8288  158.3080 O.2     1  UNL1       -0.1529
     19 O         137.9199  142.4061  156.8559 O.2     1  UNL1       -0.1529
     20 N         136.8241  140.6136  157.1499 N.3     1  UNL1       -0.1807
     21 H         136.1282  141.1990  157.6118 H       1  UNL1        0.1487
     22 C         136.4669  140.5836  155.6933 C.3     1  UNL1        0.0756
     23 C         135.4621  140.7843  154.5978 C.3     1  UNL1        0.0188
     24 C         136.8530  140.3309  154.2661 C.3     1  UNL1        0.0188
     25 C         141.5066  142.3541  166.4039 C.ar    1  UNL1       -0.0204
     26 C         140.3238  142.9170  167.1346 C.ar    1  UNL1       -0.0041
     27 C         140.4502  143.3091  168.5769 C.ar    1  UNL1        0.0020
     28 C         141.7596  143.1383  169.2885 C.ar    1  UNL1        0.0296
     29 C         142.9425  142.5753  168.5578 C.ar    1  UNL1        0.1398
     30 F         144.2518  142.4046  169.2693 F       1  UNL1       -0.2042
     31 C         142.8159  142.1833  167.1154 C.ar    1  UNL1        0.0254
     32 C         141.3959  140.6048  165.5999 C.3     1  UNL1        0.0215
     33 C         140.1965  139.7106  165.4909 C.3     1  UNL1        0.0723
     34 C         140.1334  139.6704  165.3529 C.3     1  UNL1        0.0893
     35 C         139.1611  140.7937  165.5603 C.3     1  UNL1        0.0386
     36 C         138.1079  141.0739  164.5296 C.3     1  UNL1        0.0594
     37 C         137.2653  140.9895  163.2915 C.3     1  UNL1        0.0174
     38 C         137.7799  139.8543  162.4570 C.3     1  UNL1        0.0174
     39 C         138.9406  139.2370  163.1793 C.3     1  UNL1        0.0594
     40 C         140.0525  138.8274  164.1149 C.3     1  UNL1        0.0386
     41 N         139.1433  139.9907  164.4603 N.3     1  UNL1       -0.2751
     42 C         142.8279  138.7033  164.6458 C.3     1  UNL1        0.0718
     43 C         142.5773  138.8981  166.1118 C.ar    1  UNL1        0.1207
     44 N         143.2842  138.7567  167.4273 N.ar    1  UNL1       -0.2309
     45 C         142.3304  139.1615  168.5119 C.ar    1  UNL1        0.0983
     46 C         142.4749  139.2242  170.0036 C.ar    1  UNL1        0.0206
     47 C         141.3230  139.6784  170.8502 C.ar    1  UNL1        0.0016
     48 C         140.0266  140.0699  170.2051 C.ar    1  UNL1        0.0016
     49 C         139.8822  140.0072  168.7135 C.ar    1  UNL1        0.0188
     50 C         141.0340  139.5531  167.8669 C.ar    1  UNL1        0.0785
     51 N         141.1867  139.3902  166.3835 N.ar    1  UNL1       -0.3167
@<TRIPOS>BOND
     1    42    43    1
     2    43    44   ar
     3    44    45   ar
     4    45    46   ar
     5    46    47   ar
     6    47    48   ar
     7    48    49   ar
     8    49    50   ar
     9    50    51   ar
    10    51    34    1
    11    34    35    1
    12    35    36    1
    13    36    37    1
    14    37    38    1
    15    38    39    1
    16    39    40    1
    17    39    41    1
    18    41    33    1
    19    33    32    1
    20    32     1    1
    21     1    25    1
    22    25    26   ar
    23    26    27   ar
    24    27    28   ar
    25    28    29   ar
    26    29    30    1
    27    29    31   ar
    28     1     2    1
    29     2     3    1
    30     3     4    1
    31     4     5   am
    32     5     6    2
    33     5     9    1
    34     9    10   ar
    35    10    11   ar
    36    11    17    1
    37    17    18    2
    38    17    19    2
    39    17    20    1
    40    20    22    1
    41    22    23    1
    42    23    24    1
    43    11    12   ar
    44    12    13    1
    45    12    14   ar
    46    14    15   ar
    47    15    16    1
    48     4     7    1
    49     7     8    1
    50    51    43   ar
    51    40    34    1
    52     8     1    1
    53    50    45   ar
    54    41    36    1
    55    31    25   ar
    56    15     9   ar
    57    24    22    1
    58    20    21    1
