@<TRIPOS>MOLECULE
*****
 33 37 0 0 0
SMALL
GASTEIGER

@<TRIPOS>ATOM
      1 N         142.8218  138.9759  163.2057 N.3     1  UNL1       -0.2726
      2 C         144.0338  139.2517  162.3661 C.3     1  UNL1        0.0721
      3 C         144.7285  140.4530  162.9356 C.3     1  UNL1        0.0190
      4 C         143.9458  140.9196  164.1271 C.3     1  UNL1        0.0201
      5 C         144.8433  142.0738  164.4622 C.3     1  UNL1        0.0061
      6 C         143.6313  141.7979  165.3017 C.3     1  UNL1        0.0237
      7 C         142.7674  140.0067  164.2940 C.3     1  UNL1        0.0724
      8 C         142.7499  142.1458  166.4646 C.ar    1  UNL1       -0.0225
      9 C         141.3123  142.5066  166.2344 C.ar    1  UNL1       -0.0043
     10 C         140.4309  142.8544  167.3973 C.ar    1  UNL1        0.0035
     11 C         140.9872  142.8414  168.7902 C.ar    1  UNL1        0.0714
     12 C         142.4249  142.4805  169.0204 C.ar    1  UNL1        0.0035
     13 C         143.3062  142.1327  167.8575 C.ar    1  UNL1       -0.0043
     14 C         140.1059  143.1892  169.9531 C.3     1  UNL1        0.4186
     15 F         139.2245  143.5371  171.1160 F       1  UNL1       -0.1659
     16 F         139.5397  141.8002  169.9394 F       1  UNL1       -0.1659
     17 F         140.6720  144.5782  169.9667 F       1  UNL1       -0.1659
     18 C         141.8370  137.8643  162.9941 C.3     1  UNL1        0.0730
     19 C         140.7342  137.6405  163.9858 C.3     1  UNL1        0.0294
     20 C         139.3043  137.8249  163.5718 C.3     1  UNL1        0.0666
     21 S         138.9780  138.5806  162.3179 S.3     1  UNL1       -0.0756
     22 C         138.7187  142.4509  162.1802 C.ar    1  UNL1        0.2029
     23 N         137.4124  142.0956  162.8262 N.ar    1  UNL1       -0.1250
     24 N         137.3505  140.6025  162.9564 N.ar    1  UNL1       -0.1220
     25 C         138.6186  140.0350  162.3908 C.ar    1  UNL1        0.1933
     26 N         139.4642  141.1773  161.9111 N.ar    1  UNL1       -0.2860
     27 C         140.8176  141.0657  161.2741 C.3     1  UNL1        0.1341
     28 C         139.1690  144.8689  164.3249 C.3     1  UNL1        0.0556
     29 C         139.4027  144.9478  162.8454 C.ar    1  UNL1        0.1001
     30 N         139.8844  146.1520  162.0918 N.ar    1  UNL1       -0.2085
     31 C         139.9752  145.7849  160.6403 C.ar    1  UNL1        0.2849
     32 O         139.5495  144.3537  160.4967 O.2     1  UNL1       -0.4283
     33 C         139.1957  143.8364  161.8595 C.ar    1  UNL1        0.1964
@<TRIPOS>BOND
     1    28    29    1
     2    29    30   ar
     3    30    31   ar
     4    31    32   ar
     5    32    33   ar
     6    33    22    1
     7    22    23   ar
     8    23    24   ar
     9    24    25   ar
    10    25    21    1
    11    21    20    1
    12    20    19    1
    13    19    18    1
    14    18     1    1
    15     1     2    1
    16     2     3    1
    17     4     3    1
    18     4     5    1
    19     5     6    1
    20     6     8    1
    21     8     9   ar
    22     9    10   ar
    23    10    11   ar
    24    11    14    1
    25    14    15    1
    26    14    16    1
    27    14    17    1
    28    11    12   ar
    29    12    13   ar
    30     4     7    1
    31    25    26   ar
    32    26    27    1
    33    33    29   ar
    34    26    22   ar
    35     7     1    1
    36     6     4    1
    37    13     8   ar
@<TRIPOS>MOLECULE
*****
 33 37 0 0 0
SMALL
GASTEIGER

@<TRIPOS>ATOM
      1 N         143.5474  143.3356  163.1861 N.3     1  UNL1       -0.2726
      2 C         143.4463  144.8245  163.0347 C.3     1  UNL1        0.0721
      3 C         142.1316  145.2607  163.6104 C.3     1  UNL1        0.0190
      4 C         141.4203  144.0413  164.1176 C.3     1  UNL1        0.0201
      5 C         140.2011  144.7640  164.6088 C.3     1  UNL1        0.0061
      6 C         140.3022  143.2751  164.7602 C.3     1  UNL1        0.0237
      7 C         142.2953  142.8516  163.8553 C.3     1  UNL1        0.0724
      8 C         139.7151  141.9731  165.2185 C.ar    1  UNL1       -0.0225
      9 C         138.7507  141.2342  164.3387 C.ar    1  UNL1       -0.0043
     10 C         138.1636  139.9322  164.7971 C.ar    1  UNL1        0.0035
     11 C         138.5409  139.3691  166.1352 C.ar    1  UNL1        0.0714
     12 C         139.5053  140.1080  167.0149 C.ar    1  UNL1        0.0035
     13 C         140.0924  141.4100  166.5566 C.ar    1  UNL1       -0.0043
     14 C         137.9538  138.0671  166.5935 C.3     1  UNL1        0.4186
     15 F         137.3667  136.7650  167.0519 F       1  UNL1       -0.1659
     16 F         137.3435  138.7588  167.7764 F       1  UNL1       -0.1659
     17 F         138.5642  137.3755  165.4107 F       1  UNL1       -0.1659
     18 C         144.6986  142.4808  162.7455 C.3     1  UNL1        0.0730
     19 C         145.5424  141.7754  163.7655 C.3     1  UNL1        0.0294
     20 C         145.0513  140.5069  164.3978 C.3     1  UNL1        0.0666
     21 S         144.7793  139.3016  163.5475 S.3     1  UNL1       -0.0756
     22 C         141.4028  139.1981  161.6359 C.ar    1  UNL1        0.2029
     23 N         142.3631  139.4618  160.5141 N.ar    1  UNL1       -0.1250
     24 N         143.7448  139.5327  161.0937 N.ar    1  UNL1       -0.1220
     25 C         143.6385  139.3127  162.5736 C.ar    1  UNL1        0.1933
     26 N         142.1911  139.1059  162.9088 N.ar    1  UNL1       -0.2860
     27 C         141.6304  138.8517  164.2766 C.3     1  UNL1        0.1341
     28 C         139.3573  141.4188  160.3973 C.3     1  UNL1        0.0556
     29 C         138.9753  140.0729  160.9381 C.ar    1  UNL1        0.1001
     30 N         137.5859  139.5113  161.0045 N.ar    1  UNL1       -0.2085
     31 C         137.6674  138.1435  161.6148 C.ar    1  UNL1        0.2849
     32 O         139.1072  137.8597  161.9256 O.2     1  UNL1       -0.4283
     33 C         139.9154  139.0521  161.5074 C.ar    1  UNL1        0.1964
@<TRIPOS>BOND
     1    28    29    1
     2    29    30   ar
     3    30    31   ar
     4    31    32   ar
     5    32    33   ar
     6    33    22    1
     7    22    23   ar
     8    23    24   ar
     9    24    25   ar
    10    25    21    1
    11    21    20    1
    12    20    19    1
    13    19    18    1
    14    18     1    1
    15     1     2    1
    16     2     3    1
    17     4     3    1
    18     4     5    1
    19     5     6    1
    20     6     8    1
    21     8     9   ar
    22     9    10   ar
    23    10    11   ar
    24    11    14    1
    25    14    15    1
    26    14    16    1
    27    14    17    1
    28    11    12   ar
    29    12    13   ar
    30     4     7    1
    31    25    26   ar
    32    26    27    1
    33    33    29   ar
    34    26    22   ar
    35     7     1    1
    36     6     4    1
    37    13     8   ar
@<TRIPOS>MOLECULE
*****
 33 37 0 0 0
SMALL
GASTEIGER

@<TRIPOS>ATOM
      1 N         138.2331  140.2568  162.7864 N.3     1  UNL1       -0.2726
      2 C         138.0375  138.9170  162.1409 C.3     1  UNL1        0.0721
      3 C         138.7017  137.8854  163.0037 C.3     1  UNL1        0.0190
      4 C         139.3079  138.5876  164.1825 C.3     1  UNL1        0.0201
      5 C         139.8699  137.3553  164.8271 C.3     1  UNL1        0.0061
      6 C         140.0656  138.6950  165.4726 C.3     1  UNL1        0.0237
      7 C         139.0183  140.0532  164.0482 C.3     1  UNL1        0.0724
      8 C         140.6160  139.5306  166.5901 C.ar    1  UNL1       -0.0225
      9 C         139.6872  140.3216  167.4629 C.ar    1  UNL1       -0.0043
     10 C         140.2377  141.1571  168.5804 C.ar    1  UNL1        0.0035
     11 C         141.7169  141.2017  168.8251 C.ar    1  UNL1        0.0714
     12 C         142.6457  140.4108  167.9523 C.ar    1  UNL1        0.0035
     13 C         142.0953  139.5752  166.8348 C.ar    1  UNL1       -0.0043
     14 C         142.2673  142.0373  169.9426 C.3     1  UNL1        0.4186
     15 F         142.8178  142.8729  171.0602 F       1  UNL1       -0.1659
     16 F         140.8721  142.3535  170.3934 F       1  UNL1       -0.1659
     17 F         143.6626  141.7211  169.4918 F       1  UNL1       -0.1659
     18 C         137.7317  141.5697  162.2622 C.3     1  UNL1        0.0730
     19 C         137.4778  142.7068  163.2070 C.3     1  UNL1        0.0294
     20 C         137.8399  144.1072  162.8097 C.3     1  UNL1        0.0666
     21 S         138.9554  144.8217  163.5132 S.3     1  UNL1       -0.0756
     22 C         142.1756  142.7970  164.2856 C.ar    1  UNL1        0.2029
     23 N         141.5565  142.8881  165.6488 N.ar    1  UNL1       -0.1250
     24 N         140.2749  143.6576  165.5254 N.ar    1  UNL1       -0.1220
     25 C         140.1019  144.0422  164.0859 C.ar    1  UNL1        0.1933
     26 N         141.2766  143.5103  163.3196 N.ar    1  UNL1       -0.2860
     27 C         141.5111  143.6645  161.8461 C.3     1  UNL1        0.1341
     28 C         142.4839  139.8849  162.8454 C.3     1  UNL1        0.0556
     29 C         143.6087  140.7742  163.2857 C.ar    1  UNL1        0.1001
     30 N         145.0727  140.4812  163.1413 N.ar    1  UNL1       -0.2085
     31 C         145.8358  141.6386  163.7140 C.ar    1  UNL1        0.2849
     32 O         144.8434  142.6470  164.2124 O.2     1  UNL1       -0.4283
     33 C         143.4670  142.1128  163.9476 C.ar    1  UNL1        0.1964
@<TRIPOS>BOND
     1    28    29    1
     2    29    30   ar
     3    30    31   ar
     4    31    32   ar
     5    32    33   ar
     6    33    22    1
     7    22    23   ar
     8    23    24   ar
     9    24    25   ar
    10    25    21    1
    11    21    20    1
    12    20    19    1
    13    19    18    1
    14    18     1    1
    15     1     2    1
    16     2     3    1
    17     4     3    1
    18     4     5    1
    19     5     6    1
    20     6     8    1
    21     8     9   ar
    22     9    10   ar
    23    10    11   ar
    24    11    14    1
    25    14    15    1
    26    14    16    1
    27    14    17    1
    28    11    12   ar
    29    12    13   ar
    30     4     7    1
    31    25    26   ar
    32    26    27    1
    33    33    29   ar
    34    26    22   ar
    35     7     1    1
    36     6     4    1
    37    13     8   ar
@<TRIPOS>MOLECULE
*****
 33 37 0 0 0
SMALL
GASTEIGER

@<TRIPOS>ATOM
      1 N         141.0525  138.3142  163.4283 N.3     1  UNL1       -0.2726
      2 C         139.7837  137.5705  163.1331 C.3     1  UNL1        0.0721
      3 C         138.8396  137.7923  164.2774 C.3     1  UNL1        0.0190
      4 C         139.5248  138.6732  165.2797 C.3     1  UNL1        0.0201
      5 C         138.3876  138.7127  166.2571 C.3     1  UNL1        0.0061
      6 C         139.6564  139.4564  166.5522 C.3     1  UNL1        0.0237
      7 C         140.8924  138.9958  164.7549 C.3     1  UNL1        0.0724
      8 C         140.4649  140.3380  167.4572 C.ar    1  UNL1       -0.0225
      9 C         140.1977  141.8134  167.5018 C.ar    1  UNL1       -0.0043
     10 C         141.0062  142.6949  168.4069 C.ar    1  UNL1        0.0035
     11 C         142.0819  142.1012  169.2673 C.ar    1  UNL1        0.0714
     12 C         142.3491  140.6258  169.2227 C.ar    1  UNL1        0.0035
     13 C         141.5406  139.7442  168.3177 C.ar    1  UNL1       -0.0043
     14 C         142.8904  142.9827  170.1723 C.3     1  UNL1        0.4186
     15 F         143.6989  143.8644  171.0774 F       1  UNL1       -0.1659
     16 F         144.0462  142.0327  170.0652 F       1  UNL1       -0.1659
     17 F         141.7346  143.9328  170.2795 F       1  UNL1       -0.1659
     18 C         142.2679  138.3672  162.5508 C.3     1  UNL1        0.0730
     19 C         143.6314  138.4861  163.1646 C.3     1  UNL1        0.0294
     20 C         144.3895  139.7765  163.0637 C.3     1  UNL1        0.0666
     21 S         143.9449  140.9713  163.8541 S.3     1  UNL1       -0.0756
     22 C         142.5942  144.0148  161.8594 C.ar    1  UNL1        0.2029
     23 N         143.9248  144.5351  162.3165 N.ar    1  UNL1       -0.1250
     24 N         144.5927  143.4583  163.1193 N.ar    1  UNL1       -0.1220
     25 C         143.6749  142.2725  163.1584 C.ar    1  UNL1        0.1933
     26 N         142.4398  142.6164  162.3798 N.ar    1  UNL1       -0.2860
     27 C         141.2578  141.7194  162.1601 C.3     1  UNL1        0.1341
     28 C         139.7663  145.2547  162.9154 C.3     1  UNL1        0.0556
     29 C         140.2939  145.3316  161.5134 C.ar    1  UNL1        0.1001
     30 N         139.6143  145.9919  160.3506 N.ar    1  UNL1       -0.2085
     31 C         140.4941  145.8301  159.1465 C.ar    1  UNL1        0.2849
     32 O         141.7175  145.0697  159.5652 O.2     1  UNL1       -0.4283
     33 C         141.5937  144.7617  161.0280 C.ar    1  UNL1        0.1964
@<TRIPOS>BOND
     1    28    29    1
     2    29    30   ar
     3    30    31   ar
     4    31    32   ar
     5    32    33   ar
     6    33    22    1
     7    22    23   ar
     8    23    24   ar
     9    24    25   ar
    10    25    21    1
    11    21    20    1
    12    20    19    1
    13    19    18    1
    14    18     1    1
    15     1     2    1
    16     2     3    1
    17     4     3    1
    18     4     5    1
    19     5     6    1
    20     6     8    1
    21     8     9   ar
    22     9    10   ar
    23    10    11   ar
    24    11    14    1
    25    14    15    1
    26    14    16    1
    27    14    17    1
    28    11    12   ar
    29    12    13   ar
    30     4     7    1
    31    25    26   ar
    32    26    27    1
    33    33    29   ar
    34    26    22   ar
    35     7     1    1
    36     6     4    1
    37    13     8   ar
@<TRIPOS>MOLECULE
*****
 33 37 0 0 0
SMALL
GASTEIGER

@<TRIPOS>ATOM
      1 N         142.6100  142.9648  161.5192 N.3     1  UNL1       -0.2726
      2 C         143.9482  142.8929  160.8453 C.3     1  UNL1        0.0721
      3 C         144.9294  142.3184  161.8237 C.3     1  UNL1        0.0190
      4 C         144.1977  142.0353  163.1021 C.3     1  UNL1        0.0201
      5 C         145.3838  141.4966  163.8457 C.3     1  UNL1        0.0061
      6 C         144.0457  141.5685  164.5195 C.3     1  UNL1        0.0237
      7 C         142.7642  142.4348  162.9140 C.3     1  UNL1        0.0724
      8 C         143.1852  141.3405  165.7268 C.ar    1  UNL1       -0.0225
      9 C         143.1645  142.3514  166.8348 C.ar    1  UNL1       -0.0043
     10 C         142.3041  142.1234  168.0422 C.ar    1  UNL1        0.0035
     11 C         141.4644  140.8844  168.1415 C.ar    1  UNL1        0.0714
     12 C         141.4851  139.8735  167.0335 C.ar    1  UNL1        0.0035
     13 C         142.3455  140.1015  165.8262 C.ar    1  UNL1       -0.0043
     14 C         140.6040  140.6564  169.3488 C.3     1  UNL1        0.4186
     15 F         139.7436  140.4284  170.5563 F       1  UNL1       -0.1659
     16 F         139.7925  139.6552  168.5814 F       1  UNL1       -0.1659
     17 F         141.4155  141.6576  170.1163 F       1  UNL1       -0.1659
     18 C         141.3404  143.4768  160.9060 C.3     1  UNL1        0.0730
     19 C         140.9501  144.9146  161.0800 C.3     1  UNL1        0.0294
     20 C         140.3825  145.3849  162.3865 C.3     1  UNL1        0.0666
     21 S         138.9749  145.0297  162.7639 S.3     1  UNL1       -0.0756
     22 C         138.2598  141.2755  163.4422 C.ar    1  UNL1        0.2029
     23 N         137.4949  141.4910  162.1700 N.ar    1  UNL1       -0.1250
     24 N         137.6696  142.9236  161.7611 N.ar    1  UNL1       -0.1220
     25 C         138.5426  143.5934  162.7805 C.ar    1  UNL1        0.1933
     26 N         138.9073  142.5749  163.8195 N.ar    1  UNL1       -0.2860
     27 C         139.7684  142.8138  165.0243 C.3     1  UNL1        0.1341
     28 C         139.2784  138.4151  162.2462 C.3     1  UNL1        0.0556
     29 C         138.8279  138.6721  163.6537 C.ar    1  UNL1        0.1001
     30 N         138.7664  137.6594  164.7585 N.ar    1  UNL1       -0.2085
     31 C         138.2602  138.3483  165.9911 C.ar    1  UNL1        0.2849
     32 O         138.0089  139.7867  165.6480 O.2     1  UNL1       -0.4283
     33 C         138.3597  139.9868  164.2034 C.ar    1  UNL1        0.1964
@<TRIPOS>BOND
     1    28    29    1
     2    29    30   ar
     3    30    31   ar
     4    31    32   ar
     5    32    33   ar
     6    33    22    1
     7    22    23   ar
     8    23    24   ar
     9    24    25   ar
    10    25    21    1
    11    21    20    1
    12    20    19    1
    13    19    18    1
    14    18     1    1
    15     1     2    1
    16     2     3    1
    17     4     3    1
    18     4     5    1
    19     5     6    1
    20     6     8    1
    21     8     9   ar
    22     9    10   ar
    23    10    11   ar
    24    11    14    1
    25    14    15    1
    26    14    16    1
    27    14    17    1
    28    11    12   ar
    29    12    13   ar
    30     4     7    1
    31    25    26   ar
    32    26    27    1
    33    33    29   ar
    34    26    22   ar
    35     7     1    1
    36     6     4    1
    37    13     8   ar
@<TRIPOS>MOLECULE
*****
 33 37 0 0 0
SMALL
GASTEIGER

@<TRIPOS>ATOM
      1 N         144.3697  141.5516  163.5388 N.3     1  UNL1       -0.2726
      2 C         144.9637  140.2640  163.0499 C.3     1  UNL1        0.0721
      3 C         144.5861  139.1823  164.0180 C.3     1  UNL1        0.0190
      4 C         143.7587  139.8014  165.1053 C.3     1  UNL1        0.0201
      5 C         143.5447  138.5350  165.8801 C.3     1  UNL1        0.0061
      6 C         142.9508  139.8226  166.3690 C.3     1  UNL1        0.0237
      7 C         143.6250  141.2658  164.8092 C.3     1  UNL1        0.0724
      8 C         142.1414  140.5783  167.3808 C.ar    1  UNL1       -0.0225
      9 C         140.7529  140.1243  167.7211 C.ar    1  UNL1       -0.0043
     10 C         139.9435  140.8800  168.7329 C.ar    1  UNL1        0.0035
     11 C         140.5227  142.0897  169.4045 C.ar    1  UNL1        0.0714
     12 C         141.9113  142.5438  169.0642 C.ar    1  UNL1        0.0035
     13 C         142.7206  141.7881  168.0524 C.ar    1  UNL1       -0.0043
     14 C         139.7134  142.8454  170.4163 C.3     1  UNL1        0.4186
     15 F         138.9040  143.6012  171.4282 F       1  UNL1       -0.1659
     16 F         138.8000  141.6652  170.5672 F       1  UNL1       -0.1659
     17 F         140.6267  144.0257  170.2655 F       1  UNL1       -0.1659
     18 C         144.4979  142.8902  162.8741 C.3     1  UNL1        0.0730
     19 C         144.0129  144.1248  163.5744 C.3     1  UNL1        0.0294
     20 C         143.0899  145.0737  162.8688 C.3     1  UNL1        0.0666
     21 S         141.6305  145.0968  163.2145 S.3     1  UNL1       -0.0756
     22 C         140.0518  141.6453  164.0274 C.ar    1  UNL1        0.2029
     23 N         139.8938  142.3529  165.3406 N.ar    1  UNL1       -0.1250
     24 N         140.4659  143.7319  165.1959 N.ar    1  UNL1       -0.1220
     25 C         140.9775  143.8767  163.7933 C.ar    1  UNL1        0.1933
     26 N         140.7217  142.5871  163.0711 N.ar    1  UNL1       -0.2860
     27 C         141.0737  142.2912  161.6433 C.3     1  UNL1        0.1341
     28 C         137.6027  140.7821  162.0510 C.3     1  UNL1        0.0556
     29 C         138.4907  139.8455  162.8154 C.ar    1  UNL1        0.1001
     30 N         138.4090  138.3478  162.8056 N.ar    1  UNL1       -0.2085
     31 C         139.4842  137.8189  163.7079 C.ar    1  UNL1        0.2849
     32 O         140.2304  138.9898  164.2755 O.2     1  UNL1       -0.4283
     33 C         139.6164  140.2423  163.7238 C.ar    1  UNL1        0.1964
@<TRIPOS>BOND
     1    28    29    1
     2    29    30   ar
     3    30    31   ar
     4    31    32   ar
     5    32    33   ar
     6    33    22    1
     7    22    23   ar
     8    23    24   ar
     9    24    25   ar
    10    25    21    1
    11    21    20    1
    12    20    19    1
    13    19    18    1
    14    18     1    1
    15     1     2    1
    16     2     3    1
    17     4     3    1
    18     4     5    1
    19     5     6    1
    20     6     8    1
    21     8     9   ar
    22     9    10   ar
    23    10    11   ar
    24    11    14    1
    25    14    15    1
    26    14    16    1
    27    14    17    1
    28    11    12   ar
    29    12    13   ar
    30     4     7    1
    31    25    26   ar
    32    26    27    1
    33    33    29   ar
    34    26    22   ar
    35     7     1    1
    36     6     4    1
    37    13     8   ar
@<TRIPOS>MOLECULE
*****
 33 37 0 0 0
SMALL
GASTEIGER

@<TRIPOS>ATOM
      1 N         138.2866  141.2277  163.2392 N.3     1  UNL1       -0.2726
      2 C         137.7564  142.5230  162.6995 C.3     1  UNL1        0.0721
      3 C         138.1904  143.6222  163.6233 C.3     1  UNL1        0.0190
      4 C         138.9888  143.0063  164.7338 C.3     1  UNL1        0.0201
      5 C         139.2681  144.2904  165.4570 C.3     1  UNL1        0.0061
      6 C         139.7982  142.9952  165.9966 C.3     1  UNL1        0.0237
      7 C         139.0482  141.5264  164.4964 C.3     1  UNL1        0.0724
      8 C         140.5716  142.2409  167.0373 C.ar    1  UNL1       -0.0225
      9 C         142.0571  142.4199  167.1441 C.ar    1  UNL1       -0.0043
     10 C         142.8305  141.6656  168.1847 C.ar    1  UNL1        0.0035
     11 C         142.1184  140.7324  169.1185 C.ar    1  UNL1        0.0714
     12 C         140.6329  140.5533  169.0117 C.ar    1  UNL1        0.0035
     13 C         139.8596  141.3076  167.9710 C.ar    1  UNL1       -0.0043
     14 C         142.8918  139.9781  170.1591 C.3     1  UNL1        0.4186
     15 F         143.6652  139.2238  171.1998 F       1  UNL1       -0.1659
     16 F         143.8899  141.0957  170.2274 F       1  UNL1       -0.1659
     17 F         141.8937  138.8605  170.0909 F       1  UNL1       -0.1659
     18 C         138.0897  139.8718  162.6287 C.3     1  UNL1        0.0730
     19 C         138.6655  138.6580  163.2960 C.3     1  UNL1        0.0294
     20 C         139.4855  137.6840  162.5029 C.3     1  UNL1        0.0666
     21 S         140.8487  138.0745  162.0142 S.3     1  UNL1       -0.0756
     22 C         142.6345  141.2815  163.2760 C.ar    1  UNL1        0.2029
     23 N         142.9878  140.3072  164.3604 N.ar    1  UNL1       -0.1250
     24 N         142.3619  138.9873  164.0197 N.ar    1  UNL1       -0.1220
     25 C         141.6217  139.1458  162.7247 C.ar    1  UNL1        0.1933
     26 N         141.7901  140.5637  162.2651 N.ar    1  UNL1       -0.2860
     27 C         141.2152  141.1592  161.0142 C.3     1  UNL1        0.1341
     28 C         144.8013  142.5616  161.1986 C.3     1  UNL1        0.0556
     29 C         144.0481  143.3092  162.2586 C.ar    1  UNL1        0.1001
     30 N         144.1586  144.7765  162.5499 N.ar    1  UNL1       -0.2085
     31 C         143.2310  145.0949  163.6849 C.ar    1  UNL1        0.2849
     32 O         142.5471  143.8245  164.0950 O.2     1  UNL1       -0.4283
     33 C         143.0521  142.7208  163.2135 C.ar    1  UNL1        0.1964
@<TRIPOS>BOND
     1    28    29    1
     2    29    30   ar
     3    30    31   ar
     4    31    32   ar
     5    32    33   ar
     6    33    22    1
     7    22    23   ar
     8    23    24   ar
     9    24    25   ar
    10    25    21    1
    11    21    20    1
    12    20    19    1
    13    19    18    1
    14    18     1    1
    15     1     2    1
    16     2     3    1
    17     4     3    1
    18     4     5    1
    19     5     6    1
    20     6     8    1
    21     8     9   ar
    22     9    10   ar
    23    10    11   ar
    24    11    14    1
    25    14    15    1
    26    14    16    1
    27    14    17    1
    28    11    12   ar
    29    12    13   ar
    30     4     7    1
    31    25    26   ar
    32    26    27    1
    33    33    29   ar
    34    26    22   ar
    35     7     1    1
    36     6     4    1
    37    13     8   ar
@<TRIPOS>MOLECULE
*****
 33 37 0 0 0
SMALL
GASTEIGER

@<TRIPOS>ATOM
      1 N         142.8504  143.5478  162.1100 N.3     1  UNL1       -0.2726
      2 C         144.0969  143.2955  161.3146 C.3     1  UNL1        0.0721
      3 C         144.9584  142.3453  162.0922 C.3     1  UNL1        0.0190
      4 C         144.2444  142.0103  163.3682 C.3     1  UNL1        0.0201
      5 C         145.3015  141.0898  163.9024 C.3     1  UNL1        0.0061
      6 C         144.0550  141.3421  164.6977 C.3     1  UNL1        0.0237
      7 C         142.9415  142.7535  163.3791 C.3     1  UNL1        0.0724
      8 C         143.2259  141.1020  165.9245 C.ar    1  UNL1       -0.0225
      9 C         142.4988  139.8012  166.0956 C.ar    1  UNL1       -0.0043
     10 C         141.6698  139.5611  167.3224 C.ar    1  UNL1        0.0035
     11 C         141.5678  140.6218  168.3780 C.ar    1  UNL1        0.0714
     12 C         142.2949  141.9227  168.2069 C.ar    1  UNL1        0.0035
     13 C         143.1239  142.1627  166.9801 C.ar    1  UNL1       -0.0043
     14 C         140.7387  140.3817  169.6048 C.3     1  UNL1        0.4186
     15 F         139.9096  140.1416  170.8316 F       1  UNL1       -0.1659
     16 F         141.9868  140.3060  170.4334 F       1  UNL1       -0.1659
     17 F         139.4907  140.4575  168.7762 F       1  UNL1       -0.1659
     18 C         141.7124  144.4381  161.7069 C.3     1  UNL1        0.0730
     19 C         140.8830  145.1167  162.7565 C.3     1  UNL1        0.0294
     20 C         139.4326  145.4001  162.4990 C.3     1  UNL1        0.0666
     21 S         138.3782  144.5146  163.0941 S.3     1  UNL1       -0.0756
     22 C         138.8851  140.6664  163.0816 C.ar    1  UNL1        0.2029
     23 N         138.0512  140.8530  161.8488 N.ar    1  UNL1       -0.1250
     24 N         137.7598  142.3172  161.7034 N.ar    1  UNL1       -0.1220
     25 C         138.4137  143.0356  162.8464 C.ar    1  UNL1        0.1933
     26 N         139.1092  142.0154  163.6982 N.ar    1  UNL1       -0.2860
     27 C         139.8913  142.2951  164.9472 C.3     1  UNL1        0.1341
     28 C         138.0405  139.2602  165.9027 C.3     1  UNL1        0.0556
     29 C         139.0157  138.7139  164.9025 C.ar    1  UNL1        0.1001
     30 N         139.7739  137.4253  165.0233 N.ar    1  UNL1       -0.2085
     31 C         140.6307  137.2752  163.8013 C.ar    1  UNL1        0.2849
     32 O         140.4021  138.4711  162.9252 O.2     1  UNL1       -0.4283
     33 C         139.4039  139.3602  163.6058 C.ar    1  UNL1        0.1964
@<TRIPOS>BOND
     1    28    29    1
     2    29    30   ar
     3    30    31   ar
     4    31    32   ar
     5    32    33   ar
     6    33    22    1
     7    22    23   ar
     8    23    24   ar
     9    24    25   ar
    10    25    21    1
    11    21    20    1
    12    20    19    1
    13    19    18    1
    14    18     1    1
    15     1     2    1
    16     2     3    1
    17     4     3    1
    18     4     5    1
    19     5     6    1
    20     6     8    1
    21     8     9   ar
    22     9    10   ar
    23    10    11   ar
    24    11    14    1
    25    14    15    1
    26    14    16    1
    27    14    17    1
    28    11    12   ar
    29    12    13   ar
    30     4     7    1
    31    25    26   ar
    32    26    27    1
    33    33    29   ar
    34    26    22   ar
    35     7     1    1
    36     6     4    1
    37    13     8   ar
@<TRIPOS>MOLECULE
*****
 33 37 0 0 0
SMALL
GASTEIGER

@<TRIPOS>ATOM
      1 N         137.9819  141.9170  162.8743 N.3     1  UNL1       -0.2726
      2 C         137.6509  140.9740  161.7558 C.3     1  UNL1        0.0721
      3 C         138.1439  139.6099  162.1383 C.3     1  UNL1        0.0190
      4 C         138.7797  139.7099  163.4933 C.3     1  UNL1        0.0201
      5 C         139.1563  138.2617  163.5971 C.3     1  UNL1        0.0061
      6 C         139.4873  139.2047  164.7156 C.3     1  UNL1        0.0237
      7 C         138.6796  141.1358  163.9481 C.3     1  UNL1        0.0724
      8 C         140.0870  139.4575  166.0671 C.ar    1  UNL1       -0.0225
      9 C         139.2009  139.7941  167.2297 C.ar    1  UNL1       -0.0043
     10 C         139.8006  140.0469  168.5812 C.ar    1  UNL1        0.0035
     11 C         141.2863  139.9631  168.7700 C.ar    1  UNL1        0.0714
     12 C         142.1723  139.6266  167.6074 C.ar    1  UNL1        0.0035
     13 C         141.5727  139.3738  166.2559 C.ar    1  UNL1       -0.0043
     14 C         141.8860  140.2159  170.1214 C.3     1  UNL1        0.4186
     15 F         142.4857  140.4688  171.4730 F       1  UNL1       -0.1659
     16 F         140.6048  139.7835  170.7708 F       1  UNL1       -0.1659
     17 F         143.1671  140.6483  169.4721 F       1  UNL1       -0.1659
     18 C         137.6701  143.3837  162.9124 C.3     1  UNL1        0.0730
     19 C         138.5677  144.3221  163.6633 C.3     1  UNL1        0.0294
     20 C         139.4140  145.3097  162.9160 C.3     1  UNL1        0.0666
     21 S         140.9013  145.1262  162.8525 S.3     1  UNL1       -0.0756
     22 C         142.2483  141.4898  163.0198 C.ar    1  UNL1        0.2029
     23 N         142.6331  142.0042  164.3753 N.ar    1  UNL1       -0.1250
     24 N         142.1753  143.4289  164.4777 N.ar    1  UNL1       -0.1220
     25 C         141.5076  143.7952  163.1853 C.ar    1  UNL1        0.1933
     26 N         141.5528  142.5969  162.2843 N.ar    1  UNL1       -0.2860
     27 C         140.9995  142.5191  160.8922 C.3     1  UNL1        0.1341
     28 C         144.7755  139.5841  163.8142 C.3     1  UNL1        0.0556
     29 C         143.6743  139.2348  162.8575 C.ar    1  UNL1        0.1001
     30 N         143.5414  137.9482  162.0979 N.ar    1  UNL1       -0.2085
     31 C         142.2977  138.0290  161.2633 C.ar    1  UNL1        0.2849
     32 O         141.6619  139.3655  161.5070 O.2     1  UNL1       -0.4283
     33 C         142.5127  140.1107  162.4923 C.ar    1  UNL1        0.1964
@<TRIPOS>BOND
     1    28    29    1
     2    29    30   ar
     3    30    31   ar
     4    31    32   ar
     5    32    33   ar
     6    33    22    1
     7    22    23   ar
     8    23    24   ar
     9    24    25   ar
    10    25    21    1
    11    21    20    1
    12    20    19    1
    13    19    18    1
    14    18     1    1
    15     1     2    1
    16     2     3    1
    17     4     3    1
    18     4     5    1
    19     5     6    1
    20     6     8    1
    21     8     9   ar
    22     9    10   ar
    23    10    11   ar
    24    11    14    1
    25    14    15    1
    26    14    16    1
    27    14    17    1
    28    11    12   ar
    29    12    13   ar
    30     4     7    1
    31    25    26   ar
    32    26    27    1
    33    33    29   ar
    34    26    22   ar
    35     7     1    1
    36     6     4    1
    37    13     8   ar
