@<TRIPOS>MOLECULE
*****
 29 31 0 0 0
SMALL
GASTEIGER

@<TRIPOS>ATOM
      1 C         143.2579  142.8236  164.1779 C.ar    1  UNL1       -0.0207
      2 C         141.9223  143.4679  164.4036 C.ar    1  UNL1       -0.0042
      3 C         141.0500  143.0095  165.5345 C.ar    1  UNL1       -0.0003
      4 C         141.5133  141.9067  166.4396 C.ar    1  UNL1       -0.0000
      5 C         142.8489  141.2624  166.2140 C.ar    1  UNL1       -0.0003
      6 C         143.7212  141.7208  165.0831 C.ar    1  UNL1       -0.0042
      7 C         140.6409  141.4483  167.5705 C.ar    1  UNL1        0.0000
      8 C         139.7937  140.2204  167.4141 C.ar    1  UNL1        0.0000
      9 C         138.9213  139.7620  168.5450 C.ar    1  UNL1        0.0000
     10 C         138.8962  140.5315  169.8323 C.ar    1  UNL1        0.0011
     11 C         139.7435  141.7594  169.9888 C.ar    1  UNL1        0.0140
     12 C         140.6158  142.2178  168.8579 C.ar    1  UNL1        0.0011
     13 C         139.7184  142.5289  171.2761 C.2     1  UNL1        0.0729
     14 O         140.6285  142.1368  172.4021 O.co2   1  UNL1       -0.5446
     15 O         138.7832  143.6906  171.4374 O.co2   1  UNL1       -0.5446
     16 C         144.1364  144.7263  162.6424 C.3     1  UNL1        0.0066
     17 C         144.1303  143.2820  163.0470 C.3     1  UNL1        0.0454
     18 C         144.9966  142.2960  162.3208 C.3     1  UNL1        0.1325
     19 N         146.3132  141.8801  162.9069 N.3     1  UNL1       -0.3148
     20 H         146.4577  142.3618  163.7943 H       1  UNL1        0.1192
     21 H         147.0647  142.1235  162.2616 H       1  UNL1        0.1192
     22 C         144.5462  141.7259  161.0085 C.2     1  UNL1        0.2401
     23 O         144.5578  142.5807  159.7759 O.2     1  UNL1       -0.2734
     24 N         144.0842  140.3011  160.9287 N.am    1  UNL1       -0.2756
     25 C         144.0175  139.3306  162.0705 C.3     1  UNL1        0.0964
     26 C         143.4999  138.0262  161.5407 C.3     1  UNL1        0.0585
     27 C         143.2466  138.1906  160.0714 C.3     1  UNL1        0.1824
     28 F         142.7239  137.1345  159.1432 F       1  UNL1       -0.2354
     29 C         143.6077  139.5965  159.6932 C.3     1  UNL1        0.1286
@<TRIPOS>UNITY_ATOM_ATTR
14 1
charge -1
@<TRIPOS>BOND
     1    17    16    1
     2    17     1    1
     3     1     2   ar
     4     2     3   ar
     5     3     4   ar
     6     4     7    1
     7     7     8   ar
     8     8     9   ar
     9     9    10   ar
    10    10    11   ar
    11    11    13    1
    12    13    14   ar
    13    13    15   ar
    14    11    12   ar
    15     4     5   ar
    16     5     6   ar
    17    17    18    1
    18    18    19    1
    19    18    22    1
    20    22    23    2
    21    22    24   am
    22    24    25    1
    23    25    26    1
    24    26    27    1
    25    27    28    1
    26    27    29    1
    27     6     1   ar
    28    29    24    1
    29    12     7   ar
    30    19    20    1
    31    19    21    1
@<TRIPOS>MOLECULE
*****
 29 31 0 0 0
SMALL
GASTEIGER

@<TRIPOS>ATOM
      1 C         142.8857  140.6906  163.5450 C.ar    1  UNL1       -0.0207
      2 C         141.4077  140.4422  163.4825 C.ar    1  UNL1       -0.0042
      3 C         140.5951  140.4312  164.7432 C.ar    1  UNL1       -0.0003
      4 C         141.2604  140.6685  166.0664 C.ar    1  UNL1       -0.0000
      5 C         142.7383  140.9168  166.1290 C.ar    1  UNL1       -0.0003
      6 C         143.5510  140.9279  164.8683 C.ar    1  UNL1       -0.0042
      7 C         140.4476  140.6574  167.3272 C.ar    1  UNL1        0.0000
      8 C         139.3700  139.6312  167.5159 C.ar    1  UNL1        0.0000
      9 C         138.5573  139.6202  168.7766 C.ar    1  UNL1        0.0000
     10 C         138.8222  140.6353  169.8486 C.ar    1  UNL1        0.0011
     11 C         139.8999  141.6616  169.6599 C.ar    1  UNL1        0.0140
     12 C         140.7126  141.6726  168.3992 C.ar    1  UNL1        0.0011
     13 C         140.1649  142.6767  170.7319 C.2     1  UNL1        0.0729
     14 O         140.6235  142.2321  172.0891 O.co2   1  UNL1       -0.5446
     15 O         139.9711  144.1366  170.4467 O.co2   1  UNL1       -0.5446
     16 C         144.0303  139.4116  161.5946 C.3     1  UNL1        0.0066
     17 C         143.6984  140.7016  162.2843 C.3     1  UNL1        0.0454
     18 C         144.1792  142.0027  161.7133 C.3     1  UNL1        0.1325
     19 N         145.6079  142.4206  161.8984 N.3     1  UNL1       -0.3148
     20 H         146.1046  141.7068  162.4315 H       1  UNL1        0.1192
     21 H         145.6404  143.3063  162.4034 H       1  UNL1        0.1192
     22 C         143.2314  142.8859  160.9573 C.2     1  UNL1        0.2401
     23 O         143.1416  142.7845  159.4634 O.2     1  UNL1       -0.2734
     24 N         142.3733  143.8704  161.6951 N.am    1  UNL1       -0.2756
     25 C         142.3536  144.0840  163.1797 C.3     1  UNL1        0.0964
     26 C         141.3525  145.1599  163.4800 C.3     1  UNL1        0.0585
     27 C         140.7534  145.6112  162.1810 C.3     1  UNL1        0.1824
     28 F         139.7071  146.6731  162.0144 F       1  UNL1       -0.2354
     29 C         141.3843  144.8143  161.0779 C.3     1  UNL1        0.1286
@<TRIPOS>UNITY_ATOM_ATTR
14 1
charge -1
@<TRIPOS>BOND
     1    17    16    1
     2    17     1    1
     3     1     2   ar
     4     2     3   ar
     5     3     4   ar
     6     4     7    1
     7     7     8   ar
     8     8     9   ar
     9     9    10   ar
    10    10    11   ar
    11    11    13    1
    12    13    14   ar
    13    13    15   ar
    14    11    12   ar
    15     4     5   ar
    16     5     6   ar
    17    17    18    1
    18    18    19    1
    19    18    22    1
    20    22    23    2
    21    22    24   am
    22    24    25    1
    23    25    26    1
    24    26    27    1
    25    27    28    1
    26    27    29    1
    27     6     1   ar
    28    29    24    1
    29    12     7   ar
    30    19    20    1
    31    19    21    1
@<TRIPOS>MOLECULE
*****
 29 31 0 0 0
SMALL
GASTEIGER

@<TRIPOS>ATOM
      1 C         140.2952  144.3319  163.0876 C.ar    1  UNL1       -0.0207
      2 C         141.5379  144.1568  163.9091 C.ar    1  UNL1       -0.0042
      3 C         141.4852  143.3837  165.1934 C.ar    1  UNL1       -0.0003
      4 C         140.1897  142.7857  165.6562 C.ar    1  UNL1       -0.0000
      5 C         138.9470  142.9608  164.8347 C.ar    1  UNL1       -0.0003
      6 C         138.9998  143.7339  163.5503 C.ar    1  UNL1       -0.0042
      7 C         140.1369  142.0126  166.9406 C.ar    1  UNL1        0.0000
      8 C         139.5577  140.6292  166.9600 C.ar    1  UNL1        0.0000
      9 C         139.5049  139.8561  168.2444 C.ar    1  UNL1        0.0000
     10 C         140.0315  140.4665  169.5094 C.ar    1  UNL1        0.0011
     11 C         140.6108  141.8501  169.4899 C.ar    1  UNL1        0.0140
     12 C         140.6635  142.6231  168.2056 C.ar    1  UNL1        0.0011
     13 C         141.1374  142.4605  170.7549 C.2     1  UNL1        0.0729
     14 O         140.5012  142.1247  172.0711 O.co2   1  UNL1       -0.5446
     15 O         142.3001  143.4068  170.7035 O.co2   1  UNL1       -0.5446
     16 C         139.6464  146.4262  161.6937 C.3     1  UNL1        0.0066
     17 C         140.3480  145.1050  161.8032 C.3     1  UNL1        0.0454
     18 C         141.1023  144.5568  160.6283 C.3     1  UNL1        0.1325
     19 N         141.8289  145.4874  159.7030 N.3     1  UNL1       -0.3148
     20 H         141.7041  146.4486  160.0206 H       1  UNL1        0.1192
     21 H         141.4543  145.3898  158.7593 H       1  UNL1        0.1192
     22 C         141.1301  143.0780  160.3786 C.2     1  UNL1        0.2401
     23 O         139.9277  142.3922  159.8006 O.2     1  UNL1       -0.2734
     24 N         142.3602  142.2849  160.7069 N.am    1  UNL1       -0.2756
     25 C         143.6319  142.8297  161.2865 C.3     1  UNL1        0.0964
     26 C         144.5923  141.6893  161.4511 C.3     1  UNL1        0.0585
     27 C         143.9141  140.4396  160.9732 C.3     1  UNL1        0.1824
     28 F         144.5107  139.0634  160.9579 F       1  UNL1       -0.2354
     29 C         142.5346  140.8077  160.5133 C.3     1  UNL1        0.1286
@<TRIPOS>UNITY_ATOM_ATTR
14 1
charge -1
@<TRIPOS>BOND
     1    17    16    1
     2    17     1    1
     3     1     2   ar
     4     2     3   ar
     5     3     4   ar
     6     4     7    1
     7     7     8   ar
     8     8     9   ar
     9     9    10   ar
    10    10    11   ar
    11    11    13    1
    12    13    14   ar
    13    13    15   ar
    14    11    12   ar
    15     4     5   ar
    16     5     6   ar
    17    17    18    1
    18    18    19    1
    19    18    22    1
    20    22    23    2
    21    22    24   am
    22    24    25    1
    23    25    26    1
    24    26    27    1
    25    27    28    1
    26    27    29    1
    27     6     1   ar
    28    29    24    1
    29    12     7   ar
    30    19    20    1
    31    19    21    1
@<TRIPOS>MOLECULE
*****
 29 31 0 0 0
SMALL
GASTEIGER

@<TRIPOS>ATOM
      1 C         139.0137  140.9089  162.8972 C.ar    1  UNL1       -0.0207
      2 C         138.3067  141.2850  164.1655 C.ar    1  UNL1       -0.0042
      3 C         138.9300  140.9706  165.4931 C.ar    1  UNL1       -0.0003
      4 C         140.2604  140.2802  165.5524 C.ar    1  UNL1       -0.0000
      5 C         140.9674  139.9042  164.2841 C.ar    1  UNL1       -0.0003
      6 C         140.3440  140.2185  162.9565 C.ar    1  UNL1       -0.0042
      7 C         140.8837  139.9659  166.8801 C.ar    1  UNL1        0.0000
      8 C         142.2736  139.4053  166.9422 C.ar    1  UNL1        0.0000
      9 C         142.8970  139.0910  168.2699 C.ar    1  UNL1        0.0000
     10 C         142.1304  139.3372  169.5354 C.ar    1  UNL1        0.0011
     11 C         140.7404  139.8977  169.4733 C.ar    1  UNL1        0.0140
     12 C         140.1171  140.2121  168.1456 C.ar    1  UNL1        0.0011
     13 C         139.9737  140.1439  170.7389 C.2     1  UNL1        0.0729
     14 O         140.5508  141.0264  171.8057 O.co2   1  UNL1       -0.5446
     15 O         138.6299  139.5077  170.9375 O.co2   1  UNL1       -0.5446
     16 C         137.5225  140.2067  160.8889 C.3     1  UNL1        0.0066
     17 C         138.3903  141.2233  161.5695 C.3     1  UNL1        0.0454
     18 C         138.6349  142.5543  160.9225 C.3     1  UNL1        0.1325
     19 N         138.3326  142.7470  159.4659 N.3     1  UNL1       -0.3148
     20 H         137.9712  141.8767  159.0756 H       1  UNL1        0.1192
     21 H         139.1858  143.0119  158.9737 H       1  UNL1        0.1192
     22 C         139.1816  143.6926  161.7320 C.2     1  UNL1        0.2401
     23 O         138.2463  144.6764  162.3702 O.2     1  UNL1       -0.2734
     24 N         140.6638  143.8471  161.9034 N.am    1  UNL1       -0.2756
     25 C         141.7165  142.9467  161.3279 C.3     1  UNL1        0.0964
     26 C         143.0568  143.4723  161.7491 C.3     1  UNL1        0.0585
     27 C         142.8324  144.6974  162.5850 C.3     1  UNL1        0.1824
     28 F         143.8996  145.5426  163.2149 F       1  UNL1       -0.2354
     29 C         141.3535  144.9291  162.6803 C.3     1  UNL1        0.1286
@<TRIPOS>UNITY_ATOM_ATTR
14 1
charge -1
@<TRIPOS>BOND
     1    17    16    1
     2    17     1    1
     3     1     2   ar
     4     2     3   ar
     5     3     4   ar
     6     4     7    1
     7     7     8   ar
     8     8     9   ar
     9     9    10   ar
    10    10    11   ar
    11    11    13    1
    12    13    14   ar
    13    13    15   ar
    14    11    12   ar
    15     4     5   ar
    16     5     6   ar
    17    17    18    1
    18    18    19    1
    19    18    22    1
    20    22    23    2
    21    22    24   am
    22    24    25    1
    23    25    26    1
    24    26    27    1
    25    27    28    1
    26    27    29    1
    27     6     1   ar
    28    29    24    1
    29    12     7   ar
    30    19    20    1
    31    19    21    1
@<TRIPOS>MOLECULE
*****
 29 31 0 0 0
SMALL
GASTEIGER

@<TRIPOS>ATOM
      1 C         141.9843  139.3899  163.7167 C.ar    1  UNL1       -0.0207
      2 C         140.8768  140.4000  163.7725 C.ar    1  UNL1       -0.0042
      3 C         140.3584  140.8720  165.0985 C.ar    1  UNL1       -0.0003
      4 C         140.9475  140.3340  166.3687 C.ar    1  UNL1       -0.0000
      5 C         142.0550  139.3240  166.3129 C.ar    1  UNL1       -0.0003
      6 C         142.5734  138.8519  164.9869 C.ar    1  UNL1       -0.0042
      7 C         140.4291  140.8062  167.6948 C.ar    1  UNL1        0.0000
      8 C         139.4220  139.9835  168.4424 C.ar    1  UNL1        0.0000
      9 C         138.9036  140.4556  169.7685 C.ar    1  UNL1        0.0000
     10 C         139.3924  141.7505  170.3469 C.ar    1  UNL1        0.0011
     11 C         140.3995  142.5732  169.5992 C.ar    1  UNL1        0.0140
     12 C         140.9179  142.1010  168.2732 C.ar    1  UNL1        0.0011
     13 C         140.8882  143.8680  170.1777 C.2     1  UNL1        0.0729
     14 O         142.3285  144.0185  170.5687 O.co2   1  UNL1       -0.5446
     15 O         139.9366  145.0123  170.3650 O.co2   1  UNL1       -0.5446
     16 C         141.7503  137.8739  161.6197 C.3     1  UNL1        0.0066
     17 C         142.5027  138.9177  162.3906 C.3     1  UNL1        0.0454
     18 C         143.7735  139.4895  161.8355 C.3     1  UNL1        0.1325
     19 N         144.3394  138.9545  160.5534 N.3     1  UNL1       -0.3148
     20 H         143.7363  138.2121  160.1992 H       1  UNL1        0.1192
     21 H         145.2735  138.5818  160.7234 H       1  UNL1        0.1192
     22 C         144.4784  140.5961  162.5624 C.2     1  UNL1        0.2401
     23 O         145.6655  140.2889  163.4265 O.2     1  UNL1       -0.2734
     24 N         143.9964  142.0098  162.4253 N.am    1  UNL1       -0.2756
     25 C         142.8293  142.4675  161.6016 C.3     1  UNL1        0.0964
     26 C         142.7084  143.9547  161.7551 C.3     1  UNL1        0.0585
     27 C         143.8007  144.4163  162.6736 C.3     1  UNL1        0.1824
     28 F         144.0528  145.8313  163.1026 F       1  UNL1       -0.2354
     29 C         144.5967  143.2143  163.0879 C.3     1  UNL1        0.1286
@<TRIPOS>UNITY_ATOM_ATTR
14 1
charge -1
@<TRIPOS>BOND
     1    17    16    1
     2    17     1    1
     3     1     2   ar
     4     2     3   ar
     5     3     4   ar
     6     4     7    1
     7     7     8   ar
     8     8     9   ar
     9     9    10   ar
    10    10    11   ar
    11    11    13    1
    12    13    14   ar
    13    13    15   ar
    14    11    12   ar
    15     4     5   ar
    16     5     6   ar
    17    17    18    1
    18    18    19    1
    19    18    22    1
    20    22    23    2
    21    22    24   am
    22    24    25    1
    23    25    26    1
    24    26    27    1
    25    27    28    1
    26    27    29    1
    27     6     1   ar
    28    29    24    1
    29    12     7   ar
    30    19    20    1
    31    19    21    1
@<TRIPOS>MOLECULE
*****
 29 31 0 0 0
SMALL
GASTEIGER

@<TRIPOS>ATOM
      1 C         139.0530  139.3233  163.7207 C.ar    1  UNL1       -0.0207
      2 C         138.2546  139.9747  164.8108 C.ar    1  UNL1       -0.0042
      3 C         138.9011  140.2925  166.1264 C.ar    1  UNL1       -0.0003
      4 C         140.3461  139.9591  166.3519 C.ar    1  UNL1       -0.0000
      5 C         141.1445  139.3077  165.2619 C.ar    1  UNL1       -0.0003
      6 C         140.4979  138.9899  163.9463 C.ar    1  UNL1       -0.0042
      7 C         140.9927  140.2770  167.6676 C.ar    1  UNL1        0.0000
      8 C         142.2512  139.5698  168.0751 C.ar    1  UNL1        0.0000
      9 C         142.8977  139.8877  169.3908 C.ar    1  UNL1        0.0000
     10 C         142.2857  140.9128  170.2990 C.ar    1  UNL1        0.0011
     11 C         141.0271  141.6199  169.8914 C.ar    1  UNL1        0.0140
     12 C         140.3806  141.3020  168.5758 C.ar    1  UNL1        0.0011
     13 C         140.4151  142.6449  170.7996 C.2     1  UNL1        0.0729
     14 O         139.9366  143.9520  170.2406 O.co2   1  UNL1       -0.5446
     15 O         140.2816  142.3628  172.2668 O.co2   1  UNL1       -0.5446
     16 C         138.0366  137.5900  162.0736 C.3     1  UNL1        0.0066
     17 C         138.4064  139.0054  162.4050 C.3     1  UNL1        0.0454
     18 C         138.1297  140.1030  161.4207 C.3     1  UNL1        0.1325
     19 N         136.8392  140.1170  160.6562 N.3     1  UNL1       -0.3148
     20 H         136.2739  139.3129  160.9286 H       1  UNL1        0.1192
     21 H         137.0358  140.0714  159.6564 H       1  UNL1        0.1192
     22 C         139.1434  141.1865  161.2010 C.2     1  UNL1        0.2401
     23 O         140.3709  140.9107  160.3840 O.2     1  UNL1       -0.2734
     24 N         138.9298  142.5458  161.7981 N.am    1  UNL1       -0.2756
     25 C         137.7574  142.9676  162.6333 C.3     1  UNL1        0.0964
     26 C         137.9540  144.4045  163.0163 C.3     1  UNL1        0.0585
     27 C         139.2480  144.8708  162.4178 C.3     1  UNL1        0.1824
     28 F         139.8357  146.2446  162.5491 F       1  UNL1       -0.2354
     29 C         139.8510  143.7221  161.6649 C.3     1  UNL1        0.1286
@<TRIPOS>UNITY_ATOM_ATTR
14 1
charge -1
@<TRIPOS>BOND
     1    17    16    1
     2    17     1    1
     3     1     2   ar
     4     2     3   ar
     5     3     4   ar
     6     4     7    1
     7     7     8   ar
     8     8     9   ar
     9     9    10   ar
    10    10    11   ar
    11    11    13    1
    12    13    14   ar
    13    13    15   ar
    14    11    12   ar
    15     4     5   ar
    16     5     6   ar
    17    17    18    1
    18    18    19    1
    19    18    22    1
    20    22    23    2
    21    22    24   am
    22    24    25    1
    23    25    26    1
    24    26    27    1
    25    27    28    1
    26    27    29    1
    27     6     1   ar
    28    29    24    1
    29    12     7   ar
    30    19    20    1
    31    19    21    1
@<TRIPOS>MOLECULE
*****
 29 31 0 0 0
SMALL
GASTEIGER

@<TRIPOS>ATOM
      1 C         139.4450  139.6880  163.8877 C.ar    1  UNL1       -0.0207
      2 C         138.5866  139.1844  165.0100 C.ar    1  UNL1       -0.0042
      3 C         138.9258  139.5342  166.4286 C.ar    1  UNL1       -0.0003
      4 C         140.1233  140.3875  166.7249 C.ar    1  UNL1       -0.0000
      5 C         140.9816  140.8911  165.6026 C.ar    1  UNL1       -0.0003
      6 C         140.6425  140.5413  164.1840 C.ar    1  UNL1       -0.0042
      7 C         140.4625  140.7373  168.1437 C.ar    1  UNL1        0.0000
      8 C         139.6428  140.1807  169.2698 C.ar    1  UNL1        0.0000
      9 C         139.9819  140.5305  170.6885 C.ar    1  UNL1        0.0000
     10 C         141.1408  141.4368  170.9810 C.ar    1  UNL1        0.0011
     11 C         141.9605  141.9934  169.8548 C.ar    1  UNL1        0.0140
     12 C         141.6213  141.6437  168.4361 C.ar    1  UNL1        0.0011
     13 C         143.1194  142.8998  170.1472 C.2     1  UNL1        0.0729
     14 O         142.9405  144.0741  171.0632 O.co2   1  UNL1       -0.5446
     15 O         144.4571  142.6318  169.5237 O.co2   1  UNL1       -0.5446
     16 C         139.4792  137.9939  161.9181 C.3     1  UNL1        0.0066
     17 C         139.1058  139.3382  162.4689 C.3     1  UNL1        0.0454
     18 C         138.3932  140.3327  161.6011 C.3     1  UNL1        0.1325
     19 N         136.9323  140.1607  161.3072 N.3     1  UNL1       -0.3148
     20 H         136.5880  139.3218  161.7742 H       1  UNL1        0.1192
     21 H         136.7965  140.0693  160.3004 H       1  UNL1        0.1192
     22 C         139.1414  141.4993  161.0273 C.2     1  UNL1        0.2401
     23 O         139.9806  141.3202  159.7969 O.2     1  UNL1       -0.2734
     24 N         139.0504  142.8449  161.6838 N.am    1  UNL1       -0.2756
     25 C         138.2556  143.1747  162.9123 C.3     1  UNL1        0.0964
     26 C         138.4523  144.6306  163.2148 C.3     1  UNL1        0.0585
     27 C         139.3687  145.2008  162.1731 C.3     1  UNL1        0.1824
     28 F         139.8338  146.6245  162.0919 F       1  UNL1       -0.2354
     29 C         139.7384  144.0971  161.2269 C.3     1  UNL1        0.1286
@<TRIPOS>UNITY_ATOM_ATTR
14 1
charge -1
@<TRIPOS>BOND
     1    17    16    1
     2    17     1    1
     3     1     2   ar
     4     2     3   ar
     5     3     4   ar
     6     4     7    1
     7     7     8   ar
     8     8     9   ar
     9     9    10   ar
    10    10    11   ar
    11    11    13    1
    12    13    14   ar
    13    13    15   ar
    14    11    12   ar
    15     4     5   ar
    16     5     6   ar
    17    17    18    1
    18    18    19    1
    19    18    22    1
    20    22    23    2
    21    22    24   am
    22    24    25    1
    23    25    26    1
    24    26    27    1
    25    27    28    1
    26    27    29    1
    27     6     1   ar
    28    29    24    1
    29    12     7   ar
    30    19    20    1
    31    19    21    1
@<TRIPOS>MOLECULE
*****
 29 31 0 0 0
SMALL
GASTEIGER

@<TRIPOS>ATOM
      1 C         141.0164  143.5590  162.5559 C.ar    1  UNL1       -0.0207
      2 C         141.5957  144.2060  163.7789 C.ar    1  UNL1       -0.0042
      3 C         141.3142  143.6319  165.1358 C.ar    1  UNL1       -0.0003
      4 C         140.4534  142.4108  165.2697 C.ar    1  UNL1       -0.0000
      5 C         139.8741  141.7638  164.0467 C.ar    1  UNL1       -0.0003
      6 C         140.1556  142.3379  162.6898 C.ar    1  UNL1       -0.0042
      7 C         140.1719  141.8367  166.6266 C.ar    1  UNL1        0.0000
      8 C         139.5797  140.4643  166.7522 C.ar    1  UNL1        0.0000
      9 C         139.2982  139.8902  168.1092 C.ar    1  UNL1        0.0000
     10 C         139.6090  140.6886  169.3405 C.ar    1  UNL1        0.0011
     11 C         140.2013  142.0610  169.2148 C.ar    1  UNL1        0.0140
     12 C         140.4827  142.6350  167.8579 C.ar    1  UNL1        0.0011
     13 C         140.5121  142.8593  170.4461 C.2     1  UNL1        0.0729
     14 O         140.8458  144.3171  170.3303 O.co2   1  UNL1       -0.5446
     15 O         140.4891  142.1998  171.7932 O.co2   1  UNL1       -0.5446
     16 C         140.3967  145.1883  160.6294 C.3     1  UNL1        0.0066
     17 C         141.2979  144.1331  161.1990 C.3     1  UNL1        0.0454
     18 C         142.4806  143.6521  160.4117 C.3     1  UNL1        0.1325
     19 N         142.6585  144.0838  158.9862 N.3     1  UNL1       -0.3148
     20 H         141.8891  144.6976  158.7183 H       1  UNL1        0.1192
     21 H         142.6653  143.2630  158.3807 H       1  UNL1        0.1192
     22 C         143.4853  142.7394  161.0499 C.2     1  UNL1        0.2401
     23 O         144.6290  143.3132  161.8327 O.2     1  UNL1       -0.2734
     24 N         143.3465  141.2528  160.9053 N.am    1  UNL1       -0.2756
     25 C         142.2614  140.5373  160.1566 C.3     1  UNL1        0.0964
     26 C         142.5126  139.0631  160.2726 C.3     1  UNL1        0.0585
     27 C         143.7530  138.8674  161.0930 C.3     1  UNL1        0.1824
     28 F         144.3698  137.5498  161.4583 F       1  UNL1       -0.2354
     29 C         144.2683  140.2207  161.4840 C.3     1  UNL1        0.1286
@<TRIPOS>UNITY_ATOM_ATTR
14 1
charge -1
@<TRIPOS>BOND
     1    17    16    1
     2    17     1    1
     3     1     2   ar
     4     2     3   ar
     5     3     4   ar
     6     4     7    1
     7     7     8   ar
     8     8     9   ar
     9     9    10   ar
    10    10    11   ar
    11    11    13    1
    12    13    14   ar
    13    13    15   ar
    14    11    12   ar
    15     4     5   ar
    16     5     6   ar
    17    17    18    1
    18    18    19    1
    19    18    22    1
    20    22    23    2
    21    22    24   am
    22    24    25    1
    23    25    26    1
    24    26    27    1
    25    27    28    1
    26    27    29    1
    27     6     1   ar
    28    29    24    1
    29    12     7   ar
    30    19    20    1
    31    19    21    1
@<TRIPOS>MOLECULE
*****
 29 31 0 0 0
SMALL
GASTEIGER

@<TRIPOS>ATOM
      1 C         140.2444  144.5054  163.1027 C.ar    1  UNL1       -0.0207
      2 C         139.2646  144.8468  164.1859 C.ar    1  UNL1       -0.0042
      3 C         139.2386  144.0452  165.4535 C.ar    1  UNL1       -0.0003
      4 C         140.1924  142.9023  165.6378 C.ar    1  UNL1       -0.0000
      5 C         141.1722  142.5609  164.5546 C.ar    1  UNL1       -0.0003
      6 C         141.1982  143.3625  163.2871 C.ar    1  UNL1       -0.0042
      7 C         140.1663  142.1007  166.9055 C.ar    1  UNL1        0.0000
      8 C         139.6345  140.6982  166.8952 C.ar    1  UNL1        0.0000
      9 C         139.6085  139.8966  168.1629 C.ar    1  UNL1        0.0000
     10 C         140.1143  140.4976  169.4408 C.ar    1  UNL1        0.0011
     11 C         140.6461  141.9002  169.4510 C.ar    1  UNL1        0.0140
     12 C         140.6721  142.7017  168.1834 C.ar    1  UNL1        0.0011
     13 C         141.1518  142.5012  170.7289 C.2     1  UNL1        0.0729
     14 O         142.3215  143.4399  170.7048 O.co2   1  UNL1       -0.5446
     15 O         140.4878  142.1635  172.0309 O.co2   1  UNL1       -0.5446
     16 C         139.5484  146.6197  161.7628 C.3     1  UNL1        0.0066
     17 C         140.2704  145.3070  161.8350 C.3     1  UNL1        0.0454
     18 C         141.0186  144.7957  160.6397 C.3     1  UNL1        0.1325
     19 N         142.5031  144.5938  160.7140 N.3     1  UNL1       -0.3148
     20 H         142.8352  144.8518  161.6433 H       1  UNL1        0.1192
     21 H         142.9612  145.1784  160.0148 H       1  UNL1        0.1192
     22 C         140.2823  144.4864  159.3700 C.2     1  UNL1        0.2401
     23 O         140.3015  145.4659  158.2341 O.2     1  UNL1       -0.2734
     24 N         139.5267  143.1975  159.2362 N.am    1  UNL1       -0.2756
     25 C         139.4174  142.1269  160.2811 C.3     1  UNL1        0.0964
     26 C         138.5709  141.0207  159.7247 C.3     1  UNL1        0.0585
     27 C         138.1569  141.4076  158.3358 C.3     1  UNL1        0.1824
     28 F         137.3023  140.5923  157.4112 F       1  UNL1       -0.2354
     29 C         138.7476  142.7529  158.0340 C.3     1  UNL1        0.1286
@<TRIPOS>UNITY_ATOM_ATTR
14 1
charge -1
@<TRIPOS>BOND
     1    17    16    1
     2    17     1    1
     3     1     2   ar
     4     2     3   ar
     5     3     4   ar
     6     4     7    1
     7     7     8   ar
     8     8     9   ar
     9     9    10   ar
    10    10    11   ar
    11    11    13    1
    12    13    14   ar
    13    13    15   ar
    14    11    12   ar
    15     4     5   ar
    16     5     6   ar
    17    17    18    1
    18    18    19    1
    19    18    22    1
    20    22    23    2
    21    22    24   am
    22    24    25    1
    23    25    26    1
    24    26    27    1
    25    27    28    1
    26    27    29    1
    27     6     1   ar
    28    29    24    1
    29    12     7   ar
    30    19    20    1
    31    19    21    1
