@<TRIPOS>MOLECULE
*****
 20 22 0 0 0
SMALL
GASTEIGER

@<TRIPOS>ATOM
      1 C         139.1087  138.2123  165.2942 C.3     1  UNL1        0.0899
      2 N         139.6108  139.3915  166.0736 N.3     1  UNL1       -0.2671
      3 C         139.1977  139.5761  167.5037 C.3     1  UNL1        0.1001
      4 C         139.6999  140.7553  168.2832 C.ar    1  UNL1        0.0032
      5 C         139.2867  140.9399  169.7133 C.ar    1  UNL1        0.0385
      6 N         138.3715  139.9455  170.3640 N.pl3   1  UNL1       -0.3572
      7 C         139.7889  142.1190  170.4927 C.ar    1  UNL1        0.0138
      8 C         140.7041  143.1135  169.8420 C.ar    1  UNL1        0.0009
      9 C         141.1172  142.9288  168.4119 C.ar    1  UNL1       -0.0041
     10 C         140.6151  141.7497  167.6325 C.ar    1  UNL1       -0.0185
     11 C         141.0282  141.5650  166.2024 C.3     1  UNL1        0.0603
     12 C         140.5261  140.3859  165.4230 C.3     1  UNL1        0.0811
     13 H         138.0419  139.1716  169.8524 H       1  UNL1        0.1423
     14 H         138.1004  140.0667  171.3026 H       1  UNL1        0.1423
     15 C         141.9435  142.5595  165.5517 C.ar    1  UNL1       -0.0171
     16 C         143.4267  142.4555  165.7501 C.ar    1  UNL1       -0.0039
     17 C         144.3419  143.4500  165.0994 C.ar    1  UNL1       -0.0003
     18 C         143.7739  144.5484  164.2503 C.ar    1  UNL1       -0.0000
     19 C         142.2908  144.6523  164.0519 C.ar    1  UNL1       -0.0003
     20 C         141.3756  143.6579  164.7026 C.ar    1  UNL1       -0.0039
@<TRIPOS>BOND
     1     1     2    1
     2     2     3    1
     3     3     4    1
     4     4     5   ar
     5     5     6    1
     6     5     7   ar
     7     7     8   ar
     8     8     9   ar
     9     9    10   ar
    10    10    11    1
    11    11    15    1
    12    15    16   ar
    13    16    17   ar
    14    17    18   ar
    15    18    19   ar
    16    19    20   ar
    17    11    12    1
    18    12     2    1
    19    10     4   ar
    20    20    15   ar
    21     6    13    1
    22     6    14    1
@<TRIPOS>MOLECULE
*****
 20 22 0 0 0
SMALL
GASTEIGER

@<TRIPOS>ATOM
      1 C         144.0838  139.0709  165.0300 C.3     1  UNL1        0.0899
      2 N         143.0059  139.6214  165.9162 N.3     1  UNL1       -0.2671
      3 C         142.9503  139.2277  167.3625 C.3     1  UNL1        0.1001
      4 C         141.8725  139.7782  168.2488 C.ar    1  UNL1        0.0032
      5 C         141.8168  139.3844  169.6951 C.ar    1  UNL1        0.0385
      6 N         142.8389  138.4402  170.2552 N.pl3   1  UNL1       -0.3572
      7 C         140.7391  139.9349  170.5813 C.ar    1  UNL1        0.0138
      8 C         139.7170  140.8791  170.0211 C.ar    1  UNL1        0.0009
      9 C         139.7726  141.2729  168.5748 C.ar    1  UNL1       -0.0041
     10 C         140.8504  140.7224  167.6887 C.ar    1  UNL1       -0.0185
     11 C         140.9061  141.1161  166.2423 C.3     1  UNL1        0.0603
     12 C         141.9838  140.5656  165.3561 C.3     1  UNL1        0.0811
     13 H         143.5463  138.0789  169.6736 H       1  UNL1        0.1423
     14 H         142.8024  138.1818  171.2045 H       1  UNL1        0.1423
     15 C         139.8840  142.0603  165.6821 C.ar    1  UNL1       -0.0171
     16 C         140.0698  143.5413  165.8311 C.ar    1  UNL1       -0.0039
     17 C         139.0477  144.4856  165.2710 C.ar    1  UNL1       -0.0003
     18 C         137.8398  143.9488  164.5619 C.ar    1  UNL1       -0.0000
     19 C         137.6540  142.4678  164.4129 C.ar    1  UNL1       -0.0003
     20 C         138.6761  141.5236  164.9731 C.ar    1  UNL1       -0.0039
@<TRIPOS>BOND
     1     1     2    1
     2     2     3    1
     3     3     4    1
     4     4     5   ar
     5     5     6    1
     6     5     7   ar
     7     7     8   ar
     8     8     9   ar
     9     9    10   ar
    10    10    11    1
    11    11    15    1
    12    15    16   ar
    13    16    17   ar
    14    17    18   ar
    15    18    19   ar
    16    19    20   ar
    17    11    12    1
    18    12     2    1
    19    10     4   ar
    20    20    15   ar
    21     6    13    1
    22     6    14    1
@<TRIPOS>MOLECULE
*****
 20 22 0 0 0
SMALL
GASTEIGER

@<TRIPOS>ATOM
      1 C         138.0982  139.4679  165.5616 C.3     1  UNL1        0.0899
      2 N         139.3440  139.8490  166.3051 N.3     1  UNL1       -0.2671
      3 C         139.3575  139.8310  167.8049 C.3     1  UNL1        0.1001
      4 C         140.6033  140.2121  168.5484 C.ar    1  UNL1        0.0032
      5 C         140.6168  140.1941  170.0482 C.ar    1  UNL1        0.0385
      6 N         139.3845  139.7949  170.8046 N.pl3   1  UNL1       -0.3572
      7 C         141.8625  140.5752  170.7917 C.ar    1  UNL1        0.0138
      8 C         143.0948  140.9744  170.0353 C.ar    1  UNL1        0.0009
      9 C         143.0814  140.9925  168.5355 C.ar    1  UNL1       -0.0041
     10 C         141.8356  140.6113  167.7921 C.ar    1  UNL1       -0.0185
     11 C         141.8221  140.6294  166.2922 C.3     1  UNL1        0.0603
     12 C         140.5763  140.2482  165.5488 C.3     1  UNL1        0.0811
     13 H         138.5668  139.5447  170.3166 H       1  UNL1        0.1423
     14 H         139.3933  139.7830  171.7890 H       1  UNL1        0.1423
     15 C         143.0544  141.0286  165.5358 C.ar    1  UNL1       -0.0171
     16 C         143.3995  142.4797  165.3767 C.ar    1  UNL1       -0.0039
     17 C         144.6318  142.8788  164.6203 C.ar    1  UNL1       -0.0003
     18 C         145.5190  141.8269  164.0231 C.ar    1  UNL1       -0.0000
     19 C         145.1738  140.3759  164.1823 C.ar    1  UNL1       -0.0003
     20 C         143.9415  139.9767  164.9387 C.ar    1  UNL1       -0.0039
@<TRIPOS>BOND
     1     1     2    1
     2     2     3    1
     3     3     4    1
     4     4     5   ar
     5     5     6    1
     6     5     7   ar
     7     7     8   ar
     8     8     9   ar
     9     9    10   ar
    10    10    11    1
    11    11    15    1
    12    15    16   ar
    13    16    17   ar
    14    17    18   ar
    15    18    19   ar
    16    19    20   ar
    17    11    12    1
    18    12     2    1
    19    10     4   ar
    20    20    15   ar
    21     6    13    1
    22     6    14    1
@<TRIPOS>MOLECULE
*****
 20 22 0 0 0
SMALL
GASTEIGER

@<TRIPOS>ATOM
      1 C         145.1828  142.0072  164.3358 C.3     1  UNL1        0.0899
      2 N         143.7750  142.4563  164.5937 N.3     1  UNL1       -0.2671
      3 C         143.1029  143.4010  163.6421 C.3     1  UNL1        0.1001
      4 C         141.6950  143.8501  163.9000 C.ar    1  UNL1        0.0032
      5 C         141.0229  144.7948  162.9483 C.ar    1  UNL1        0.0385
      6 N         141.7586  145.2905  161.7387 N.pl3   1  UNL1       -0.3572
      7 C         139.6152  145.2439  163.2062 C.ar    1  UNL1        0.0138
      8 C         138.8796  144.7482  164.4158 C.ar    1  UNL1        0.0009
      9 C         139.5517  143.8035  165.3675 C.ar    1  UNL1       -0.0041
     10 C         140.9594  143.3544  165.1096 C.ar    1  UNL1       -0.0185
     11 C         141.6316  142.4097  166.0613 C.3     1  UNL1        0.0603
     12 C         143.0393  141.9606  165.8033 C.3     1  UNL1        0.0811
     13 H         142.6826  144.9958  161.5694 H       1  UNL1        0.1423
     14 H         141.3174  145.9106  161.1141 H       1  UNL1        0.1423
     15 C         140.8959  141.9140  167.2709 C.ar    1  UNL1       -0.0171
     16 C         140.8790  142.7341  168.5267 C.ar    1  UNL1       -0.0039
     17 C         140.1434  142.2385  169.7363 C.ar    1  UNL1       -0.0003
     18 C         139.4247  140.9226  169.6901 C.ar    1  UNL1       -0.0000
     19 C         139.4416  140.1025  168.4343 C.ar    1  UNL1       -0.0003
     20 C         140.1772  140.5982  167.2247 C.ar    1  UNL1       -0.0039
@<TRIPOS>BOND
     1     1     2    1
     2     2     3    1
     3     3     4    1
     4     4     5   ar
     5     5     6    1
     6     5     7   ar
     7     7     8   ar
     8     8     9   ar
     9     9    10   ar
    10    10    11    1
    11    11    15    1
    12    15    16   ar
    13    16    17   ar
    14    17    18   ar
    15    18    19   ar
    16    19    20   ar
    17    11    12    1
    18    12     2    1
    19    10     4   ar
    20    20    15   ar
    21     6    13    1
    22     6    14    1
@<TRIPOS>MOLECULE
*****
 20 22 0 0 0
SMALL
GASTEIGER

@<TRIPOS>ATOM
      1 C         138.3930  138.0623  162.5091 C.3     1  UNL1        0.0899
      2 N         138.7238  139.2507  163.3626 N.3     1  UNL1       -0.2671
      3 C         138.3683  140.6313  162.8963 C.3     1  UNL1        0.1001
      4 C         138.6991  141.8196  163.7499 C.ar    1  UNL1        0.0032
      5 C         138.3436  143.2003  163.2835 C.ar    1  UNL1        0.0385
      6 N         137.6573  143.3926  161.9637 N.pl3   1  UNL1       -0.3572
      7 C         138.6745  144.3885  164.1371 C.ar    1  UNL1        0.0138
      8 C         139.3608  144.1962  165.4569 C.ar    1  UNL1        0.0009
      9 C         139.7162  142.8155  165.9232 C.ar    1  UNL1       -0.0041
     10 C         139.3854  141.6273  165.0697 C.ar    1  UNL1       -0.0185
     11 C         139.7409  140.2466  165.5360 C.3     1  UNL1        0.0603
     12 C         139.4101  139.0583  164.6825 C.3     1  UNL1        0.0811
     13 H         137.4402  142.6127  161.4035 H       1  UNL1        0.1423
     14 H         137.4240  144.2988  161.6576 H       1  UNL1        0.1423
     15 C         140.4272  140.0542  166.8559 C.ar    1  UNL1       -0.0171
     16 C         141.8982  139.7638  166.9010 C.ar    1  UNL1       -0.0039
     17 C         142.5845  139.5714  168.2209 C.ar    1  UNL1       -0.0003
     18 C         141.7998  139.6695  169.4955 C.ar    1  UNL1       -0.0000
     19 C         140.3289  139.9599  169.4503 C.ar    1  UNL1       -0.0003
     20 C         139.6426  140.1523  168.1305 C.ar    1  UNL1       -0.0039
@<TRIPOS>BOND
     1     1     2    1
     2     2     3    1
     3     3     4    1
     4     4     5   ar
     5     5     6    1
     6     5     7   ar
     7     7     8   ar
     8     8     9   ar
     9     9    10   ar
    10    10    11    1
    11    11    15    1
    12    15    16   ar
    13    16    17   ar
    14    17    18   ar
    15    18    19   ar
    16    19    20   ar
    17    11    12    1
    18    12     2    1
    19    10     4   ar
    20    20    15   ar
    21     6    13    1
    22     6    14    1
@<TRIPOS>MOLECULE
*****
 20 22 0 0 0
SMALL
GASTEIGER

@<TRIPOS>ATOM
      1 C         138.0392  144.3738  163.0296 C.3     1  UNL1        0.0899
      2 N         139.2640  143.9563  163.7884 N.3     1  UNL1       -0.2671
      3 C         140.6258  144.2176  163.2166 C.3     1  UNL1        0.1001
      4 C         141.8506  143.8002  163.9754 C.ar    1  UNL1        0.0032
      5 C         143.2125  144.0615  163.4036 C.ar    1  UNL1        0.0385
      6 N         143.3496  144.7402  162.0730 N.pl3   1  UNL1       -0.3572
      7 C         144.4372  143.6440  164.1624 C.ar    1  UNL1        0.0138
      8 C         144.3000  142.9653  165.4931 C.ar    1  UNL1        0.0009
      9 C         142.9381  142.7041  166.0649 C.ar    1  UNL1       -0.0041
     10 C         141.7134  143.1215  165.3061 C.ar    1  UNL1       -0.0185
     11 C         140.3515  142.8602  165.8779 C.3     1  UNL1        0.0603
     12 C         139.1268  143.2776  165.1191 C.3     1  UNL1        0.0811
     13 H         142.5458  145.0141  161.5750 H       1  UNL1        0.1423
     14 H         144.2435  144.9116  161.6977 H       1  UNL1        0.1423
     15 C         140.2143  142.1815  167.2085 C.ar    1  UNL1       -0.0171
     16 C         140.3434  142.9776  168.4733 C.ar    1  UNL1       -0.0039
     17 C         140.2062  142.2989  169.8039 C.ar    1  UNL1       -0.0003
     18 C         139.9400  140.8241  169.8697 C.ar    1  UNL1       -0.0000
     19 C         139.8109  140.0281  168.6049 C.ar    1  UNL1       -0.0003
     20 C         139.9481  140.7068  167.2743 C.ar    1  UNL1       -0.0039
@<TRIPOS>BOND
     1     1     2    1
     2     2     3    1
     3     3     4    1
     4     4     5   ar
     5     5     6    1
     6     5     7   ar
     7     7     8   ar
     8     8     9   ar
     9     9    10   ar
    10    10    11    1
    11    11    15    1
    12    15    16   ar
    13    16    17   ar
    14    17    18   ar
    15    18    19   ar
    16    19    20   ar
    17    11    12    1
    18    12     2    1
    19    10     4   ar
    20    20    15   ar
    21     6    13    1
    22     6    14    1
@<TRIPOS>MOLECULE
*****
 20 22 0 0 0
SMALL
GASTEIGER

@<TRIPOS>ATOM
      1 C         138.3548  144.4063  165.0230 C.3     1  UNL1        0.0899
      2 N         139.7602  143.8877  165.0991 N.3     1  UNL1       -0.2671
      3 C         140.7334  144.1943  163.9996 C.3     1  UNL1        0.1001
      4 C         142.1388  143.6756  164.0757 C.ar    1  UNL1        0.0032
      5 C         143.1120  143.9822  162.9762 C.ar    1  UNL1        0.0385
      6 N         142.6797  144.8074  161.8005 N.pl3   1  UNL1       -0.3572
      7 C         144.5173  143.4635  163.0523 C.ar    1  UNL1        0.0138
      8 C         144.9496  142.6383  164.2280 C.ar    1  UNL1        0.0009
      9 C         143.9765  142.3318  165.3275 C.ar    1  UNL1       -0.0041
     10 C         142.5711  142.8504  165.2513 C.ar    1  UNL1       -0.0185
     11 C         141.5979  142.5438  166.3509 C.3     1  UNL1        0.0603
     12 C         140.1925  143.0625  166.2748 C.3     1  UNL1        0.0811
     13 H         141.7573  145.1478  161.7505 H       1  UNL1        0.1423
     14 H         143.3184  145.0086  161.0788 H       1  UNL1        0.1423
     15 C         142.0302  141.7186  167.5266 C.ar    1  UNL1       -0.0171
     16 C         141.8254  140.2327  167.5158 C.ar    1  UNL1       -0.0039
     17 C         142.2577  139.4074  168.6914 C.ar    1  UNL1       -0.0003
     18 C         142.8947  140.0682  169.8779 C.ar    1  UNL1       -0.0000
     19 C         143.0995  141.5541  169.8886 C.ar    1  UNL1       -0.0003
     20 C         142.6672  142.3793  168.7130 C.ar    1  UNL1       -0.0039
@<TRIPOS>BOND
     1     1     2    1
     2     2     3    1
     3     3     4    1
     4     4     5   ar
     5     5     6    1
     6     5     7   ar
     7     7     8   ar
     8     8     9   ar
     9     9    10   ar
    10    10    11    1
    11    11    15    1
    12    15    16   ar
    13    16    17   ar
    14    17    18   ar
    15    18    19   ar
    16    19    20   ar
    17    11    12    1
    18    12     2    1
    19    10     4   ar
    20    20    15   ar
    21     6    13    1
    22     6    14    1
@<TRIPOS>MOLECULE
*****
 20 22 0 0 0
SMALL
GASTEIGER

@<TRIPOS>ATOM
      1 C         138.9058  137.8249  165.3569 C.3     1  UNL1        0.0899
      2 N         139.1332  139.3025  165.4806 N.3     1  UNL1       -0.2671
      3 C         138.5367  140.2400  164.4730 C.3     1  UNL1        0.1001
      4 C         138.7641  141.7175  164.5966 C.ar    1  UNL1        0.0032
      5 C         138.1676  142.6550  163.5891 C.ar    1  UNL1        0.0385
      6 N         137.3437  142.1151  162.4579 N.pl3   1  UNL1       -0.3572
      7 C         138.3950  144.1325  163.7127 C.ar    1  UNL1        0.0138
      8 C         139.2189  144.6725  164.8439 C.ar    1  UNL1        0.0009
      9 C         139.8154  143.7349  165.8515 C.ar    1  UNL1       -0.0041
     10 C         139.5880  142.2575  165.7278 C.ar    1  UNL1       -0.0185
     11 C         140.1845  141.3199  166.7354 C.3     1  UNL1        0.0603
     12 C         139.9571  139.8424  166.6118 C.3     1  UNL1        0.0811
     13 H         137.1945  141.1453  162.3767 H       1  UNL1        0.1423
     14 H         136.9522  142.7304  161.7965 H       1  UNL1        0.1423
     15 C         141.0084  141.8598  167.8667 C.ar    1  UNL1       -0.0171
     16 C         140.3348  142.4208  169.0840 C.ar    1  UNL1       -0.0039
     17 C         141.1587  142.9607  170.2152 C.ar    1  UNL1       -0.0003
     18 C         142.6562  142.9397  170.1291 C.ar    1  UNL1       -0.0000
     19 C         143.3296  142.3788  168.9118 C.ar    1  UNL1       -0.0003
     20 C         142.5057  141.8389  167.7806 C.ar    1  UNL1       -0.0039
@<TRIPOS>BOND
     1     1     2    1
     2     2     3    1
     3     3     4    1
     4     4     5   ar
     5     5     6    1
     6     5     7   ar
     7     7     8   ar
     8     8     9   ar
     9     9    10   ar
    10    10    11    1
    11    11    15    1
    12    15    16   ar
    13    16    17   ar
    14    17    18   ar
    15    18    19   ar
    16    19    20   ar
    17    11    12    1
    18    12     2    1
    19    10     4   ar
    20    20    15   ar
    21     6    13    1
    22     6    14    1
@<TRIPOS>MOLECULE
*****
 20 22 0 0 0
SMALL
GASTEIGER

@<TRIPOS>ATOM
      1 C         138.0004  144.2080  164.2294 C.3     1  UNL1        0.0899
      2 N         138.4020  142.7703  164.3770 N.3     1  UNL1       -0.2671
      3 C         138.0060  141.7699  163.3318 C.3     1  UNL1        0.1001
      4 C         138.4075  140.3322  163.4793 C.ar    1  UNL1        0.0032
      5 C         138.0115  139.3318  162.4341 C.ar    1  UNL1        0.0385
      6 N         137.2140  139.7692  161.2414 N.pl3   1  UNL1       -0.3572
      7 C         138.4131  137.8942  162.5817 C.ar    1  UNL1        0.0138
      8 C         139.2106  137.4569  163.7744 C.ar    1  UNL1        0.0009
      9 C         139.6066  138.4572  164.8196 C.ar    1  UNL1       -0.0041
     10 C         139.2051  139.8949  164.6721 C.ar    1  UNL1       -0.0185
     11 C         139.6011  140.8953  165.7173 C.3     1  UNL1        0.0603
     12 C         139.1995  142.3329  165.5697 C.3     1  UNL1        0.0811
     13 H         136.9504  140.7128  161.1445 H       1  UNL1        0.1423
     14 H         136.9541  139.1126  160.5554 H       1  UNL1        0.1423
     15 C         140.3986  140.4580  166.9100 C.ar    1  UNL1       -0.0171
     16 C         139.7379  140.3391  168.2515 C.ar    1  UNL1       -0.0039
     17 C         140.5354  139.9017  169.4442 C.ar    1  UNL1       -0.0003
     18 C         141.9937  139.5833  169.2955 C.ar    1  UNL1       -0.0000
     19 C         142.6544  139.7022  167.9542 C.ar    1  UNL1       -0.0003
     20 C         141.8568  140.1395  166.7614 C.ar    1  UNL1       -0.0039
@<TRIPOS>BOND
     1     1     2    1
     2     2     3    1
     3     3     4    1
     4     4     5   ar
     5     5     6    1
     6     5     7   ar
     7     7     8   ar
     8     8     9   ar
     9     9    10   ar
    10    10    11    1
    11    11    15    1
    12    15    16   ar
    13    16    17   ar
    14    17    18   ar
    15    18    19   ar
    16    19    20   ar
    17    11    12    1
    18    12     2    1
    19    10     4   ar
    20    20    15   ar
    21     6    13    1
    22     6    14    1
