@<TRIPOS>MOLECULE
*****
 33 36 0 0 0
SMALL
GASTEIGER

@<TRIPOS>ATOM
      1 C         144.1519  138.5224  160.8265 C.3     1  UNL1        0.0174
      2 C         143.4470  139.7778  161.2476 C.3     1  UNL1        0.0583
      3 C         142.9723  140.7546  160.2129 C.3     1  UNL1        0.0221
      4 C         142.2674  142.0099  160.6339 C.3     1  UNL1        0.0444
      5 C         141.6909  143.1494  159.8471 C.ar    1  UNL1       -0.0077
      6 C         141.6241  143.4189  158.3730 C.ar    1  UNL1       -0.0030
      7 C         140.9709  144.6714  157.8685 C.ar    1  UNL1       -0.0002
      8 C         140.3844  145.6543  158.8381 C.ar    1  UNL1        0.0012
      9 C         140.4512  145.3847  160.3121 C.ar    1  UNL1        0.0140
     10 C         141.1044  144.1323  160.8166 C.ar    1  UNL1        0.0406
     11 N         141.3185  143.6002  162.2026 N.pl3   1  UNL1       -0.3326
     12 C         142.0373  142.2885  162.0898 C.3     1  UNL1        0.0923
     13 C         142.5121  141.3118  163.1245 C.3     1  UNL1        0.1029
     14 N         143.2169  140.0565  162.7035 N.3     1  UNL1       -0.2679
     15 H         141.0368  144.0355  163.0395 H       1  UNL1        0.1468
     16 C         142.2820  141.5904  164.5803 C.ar    1  UNL1        0.0487
     17 C         143.3856  142.1662  165.4174 C.ar    1  UNL1        0.1396
     18 F         144.7193  142.4633  164.7984 F       1  UNL1       -0.2044
     19 C         143.1556  142.4448  166.8731 C.ar    1  UNL1        0.0295
     20 C         141.8219  142.1477  167.4920 C.ar    1  UNL1        0.0045
     21 C         140.7183  141.5719  166.6550 C.ar    1  UNL1        0.0295
     22 C         140.9483  141.2933  165.1991 C.ar    1  UNL1        0.1396
     23 F         139.8447  140.7175  164.3622 F       1  UNL1       -0.2044
     24 C         141.5918  142.4263  168.9478 C.2     1  UNL1        0.0013
     25 C         140.1986  142.4092  169.5037 C.2     1  UNL1        0.0151
     26 C         139.9685  142.6879  170.9595 C.2     1  UNL1        0.0729
     27 O         138.9086  143.6633  171.3781 O.co2   1  UNL1       -0.5446
     28 O         140.7983  141.9911  171.9967 O.co2   1  UNL1       -0.5446
     29 C         143.6916  139.0797  163.7382 C.3     1  UNL1        0.1052
     30 C         142.6969  138.2921  164.5383 C.3     1  UNL1        0.1486
     31 C         141.8962  138.0405  163.2951 C.3     1  UNL1        0.0368
     32 C         143.4977  138.5437  165.7815 C.3     1  UNL1        0.0368
     33 F         141.7022  137.5044  165.3384 F       1  UNL1       -0.2386
@<TRIPOS>UNITY_ATOM_ATTR
27 1
charge -1
@<TRIPOS>BOND
     1     2     1    1
     2     2     3    1
     3     3     4    1
     4     4     5    1
     5     5     6   ar
     6     6     7   ar
     7     7     8   ar
     8     8     9   ar
     9     9    10   ar
    10    10    11    1
    11    11    12    1
    12    12    13    1
    13    13    16    1
    14    16    17   ar
    15    17    18    1
    16    17    19   ar
    17    19    20   ar
    18    20    24    1
    19    24    25    2
    20    25    26    1
    21    26    27   ar
    22    26    28   ar
    23    20    21   ar
    24    21    22   ar
    25    22    23    1
    26    13    14    1
    27    14    29    1
    28    29    30    1
    29    30    31    1
    30    30    32    1
    31    30    33    1
    32    14     2    1
    33    12     4    1
    34    22    16   ar
    35    10     5   ar
    36    11    15    1
@<TRIPOS>MOLECULE
*****
 33 36 0 0 0
SMALL
GASTEIGER

@<TRIPOS>ATOM
      1 C         144.1291  138.5311  160.8292 C.3     1  UNL1        0.0174
      2 C         143.4242  139.7852  161.2540 C.3     1  UNL1        0.0583
      3 C         142.9492  140.7649  160.2221 C.3     1  UNL1        0.0221
      4 C         142.2443  142.0189  160.6469 C.3     1  UNL1        0.0444
      5 C         141.6675  143.1606  159.8634 C.ar    1  UNL1       -0.0077
      6 C         141.6006  143.4344  158.3902 C.ar    1  UNL1       -0.0030
      7 C         140.9471  144.6883  157.8893 C.ar    1  UNL1       -0.0002
      8 C         140.3606  145.6683  158.8618 C.ar    1  UNL1        0.0012
      9 C         140.4276  145.3945  160.3350 C.ar    1  UNL1        0.0140
     10 C         141.0810  144.1406  160.8358 C.ar    1  UNL1        0.0406
     11 N         141.2953  143.6046  162.2203 N.pl3   1  UNL1       -0.3326
     12 C         142.0143  142.2933  162.1035 C.3     1  UNL1        0.0923
     13 C         142.4892  141.3136  163.1354 C.3     1  UNL1        0.1029
     14 N         143.1942  140.0596  162.7107 N.3     1  UNL1       -0.2679
     15 H         141.0136  144.0374  163.0584 H       1  UNL1        0.1468
     16 C         142.2592  141.5880  164.5921 C.ar    1  UNL1        0.0487
     17 C         140.9181  141.3119  165.2047 C.ar    1  UNL1        0.1396
     18 F         139.8071  140.7613  164.3605 F       1  UNL1       -0.2044
     19 C         140.6880  141.5862  166.6613 C.ar    1  UNL1        0.0295
     20 C         141.7991  142.1367  167.5053 C.ar    1  UNL1        0.0045
     21 C         143.1402  142.4129  166.8928 C.ar    1  UNL1        0.0295
     22 C         143.3702  142.1385  165.4361 C.ar    1  UNL1        0.1396
     23 F         144.7113  142.4147  164.8235 F       1  UNL1       -0.2044
     24 C         141.5691  142.4111  168.9620 C.2     1  UNL1        0.0013
     25 C         140.1718  142.4536  169.5057 C.2     1  UNL1        0.0151
     26 C         139.9418  142.7280  170.9623 C.2     1  UNL1        0.0729
     27 O         138.8796  143.6997  171.3840 O.co2   1  UNL1       -0.5446
     28 O         140.7738  142.0308  171.9973 O.co2   1  UNL1       -0.5446
     29 C         143.6691  139.0800  163.7425 C.3     1  UNL1        0.1052
     30 C         142.6744  138.2978  164.5480 C.3     1  UNL1        0.1486
     31 C         141.8676  138.0474  163.3085 C.3     1  UNL1        0.0368
     32 C         143.4813  138.5482  165.7875 C.3     1  UNL1        0.0368
     33 F         141.6798  137.5156  165.3535 F       1  UNL1       -0.2386
@<TRIPOS>UNITY_ATOM_ATTR
27 1
charge -1
@<TRIPOS>BOND
     1     2     1    1
     2     2     3    1
     3     3     4    1
     4     4     5    1
     5     5     6   ar
     6     6     7   ar
     7     7     8   ar
     8     8     9   ar
     9     9    10   ar
    10    10    11    1
    11    11    12    1
    12    12    13    1
    13    13    16    1
    14    16    17   ar
    15    17    18    1
    16    17    19   ar
    17    19    20   ar
    18    20    24    1
    19    24    25    2
    20    25    26    1
    21    26    27   ar
    22    26    28   ar
    23    20    21   ar
    24    21    22   ar
    25    22    23    1
    26    13    14    1
    27    14    29    1
    28    29    30    1
    29    30    31    1
    30    30    32    1
    31    30    33    1
    32    14     2    1
    33    12     4    1
    34    22    16   ar
    35    10     5   ar
    36    11    15    1
@<TRIPOS>MOLECULE
*****
 33 36 0 0 0
SMALL
GASTEIGER

@<TRIPOS>ATOM
      1 C         140.1965  145.5230  160.6508 C.3     1  UNL1        0.0174
      2 C         140.5005  144.0904  160.9758 C.3     1  UNL1        0.0583
      3 C         140.9776  143.1620  159.8985 C.3     1  UNL1        0.0221
      4 C         141.2816  141.7295  160.2235 C.3     1  UNL1        0.0444
      5 C         141.7639  140.5889  159.3771 C.ar    1  UNL1       -0.0077
      6 C         142.1053  140.4950  157.9195 C.ar    1  UNL1       -0.0030
      7 C         142.5719  139.1920  157.3410 C.ar    1  UNL1       -0.0002
      8 C         142.6970  137.9831  158.2200 C.ar    1  UNL1        0.0012
      9 C         142.3556  138.0770  159.6776 C.ar    1  UNL1        0.0140
     10 C         141.8890  139.3799  160.2561 C.ar    1  UNL1        0.0406
     11 N         141.4840  139.7734  161.6458 N.pl3   1  UNL1       -0.3326
     12 C         141.1086  141.2255  161.6256 C.3     1  UNL1        0.0923
     13 C         140.6316  142.1540  162.7029 C.3     1  UNL1        0.1029
     14 N         140.3275  143.5864  162.3779 N.3     1  UNL1       -0.2679
     15 H         141.4675  139.1823  162.4329 H       1  UNL1        0.1468
     16 C         140.4586  141.6500  164.1050 C.ar    1  UNL1        0.0487
     17 C         139.2090  140.9140  164.4887 C.ar    1  UNL1        0.1396
     18 F         138.1326  140.6821  163.4701 F       1  UNL1       -0.2044
     19 C         139.0360  140.4100  165.8908 C.ar    1  UNL1        0.0295
     20 C         140.1125  140.6419  166.9093 C.ar    1  UNL1        0.0045
     21 C         141.3620  141.3778  166.5257 C.ar    1  UNL1        0.0295
     22 C         141.5350  141.8819  165.1235 C.ar    1  UNL1        0.1396
     23 F         142.7845  142.6178  164.7399 F       1  UNL1       -0.2044
     24 C         139.9395  140.1379  168.3115 C.2     1  UNL1        0.0013
     25 C         140.2724  141.0256  169.4740 C.2     1  UNL1        0.0151
     26 C         140.0994  140.5216  170.8761 C.2     1  UNL1        0.0729
     27 O         140.7814  141.2215  172.0142 O.co2   1  UNL1       -0.5446
     28 O         139.2445  139.3178  171.1402 O.co2   1  UNL1       -0.5446
     29 C         139.8505  144.5149  163.4552 C.3     1  UNL1        0.1052
     30 C         138.5298  144.2724  164.1237 C.3     1  UNL1        0.1486
     31 C         137.9052  143.9940  162.7887 C.3     1  UNL1        0.0368
     32 C         139.1545  144.5508  165.4587 C.3     1  UNL1        0.0368
     33 F         137.2091  144.0299  164.7922 F       1  UNL1       -0.2386
@<TRIPOS>UNITY_ATOM_ATTR
27 1
charge -1
@<TRIPOS>BOND
     1     2     1    1
     2     2     3    1
     3     3     4    1
     4     4     5    1
     5     5     6   ar
     6     6     7   ar
     7     7     8   ar
     8     8     9   ar
     9     9    10   ar
    10    10    11    1
    11    11    12    1
    12    12    13    1
    13    13    16    1
    14    16    17   ar
    15    17    18    1
    16    17    19   ar
    17    19    20   ar
    18    20    24    1
    19    24    25    2
    20    25    26    1
    21    26    27   ar
    22    26    28   ar
    23    20    21   ar
    24    21    22   ar
    25    22    23    1
    26    13    14    1
    27    14    29    1
    28    29    30    1
    29    30    31    1
    30    30    32    1
    31    30    33    1
    32    14     2    1
    33    12     4    1
    34    22    16   ar
    35    10     5   ar
    36    11    15    1
@<TRIPOS>MOLECULE
*****
 33 36 0 0 0
SMALL
GASTEIGER

@<TRIPOS>ATOM
      1 C         137.5146  139.2001  160.9186 C.3     1  UNL1        0.0174
      2 C         138.8482  139.8265  161.2002 C.3     1  UNL1        0.0583
      3 C         139.7398  140.2346  160.0650 C.3     1  UNL1        0.0221
      4 C         141.0733  140.8609  160.3465 C.3     1  UNL1        0.0444
      5 C         142.1585  141.3615  159.4400 C.ar    1  UNL1       -0.0077
      6 C         142.2772  141.4050  157.9454 C.ar    1  UNL1       -0.0030
      7 C         143.5086  141.9762  157.3072 C.ar    1  UNL1       -0.0002
      8 C         144.6213  142.5038  158.1636 C.ar    1  UNL1        0.0012
      9 C         144.5026  142.4603  159.6582 C.ar    1  UNL1        0.0140
     10 C         143.2712  141.8891  160.2964 C.ar    1  UNL1        0.0406
     11 N         142.8737  141.7146  161.7322 N.pl3   1  UNL1       -0.3326
     12 C         141.5153  141.0792  161.7632 C.3     1  UNL1        0.0923
     13 C         140.6237  140.6711  162.8984 C.3     1  UNL1        0.1029
     14 N         139.2902  140.0447  162.6169 N.3     1  UNL1       -0.2679
     15 H         143.4102  141.9720  162.5166 H       1  UNL1        0.1468
     16 C         141.0657  140.8893  164.3151 C.ar    1  UNL1        0.0487
     17 C         141.9549  139.8849  164.9865 C.ar    1  UNL1        0.1396
     18 F         142.4020  138.6624  164.2411 F       1  UNL1       -0.2044
     19 C         142.3969  140.1031  166.4031 C.ar    1  UNL1        0.0295
     20 C         141.9498  141.3256  167.1484 C.ar    1  UNL1        0.0045
     21 C         141.0607  142.3300  166.4771 C.ar    1  UNL1        0.0295
     22 C         140.6186  142.1118  165.0603 C.ar    1  UNL1        0.1396
     23 F         139.7295  143.1161  164.3889 F       1  UNL1       -0.2044
     24 C         142.3918  141.5439  168.5651 C.2     1  UNL1        0.0013
     25 C         141.9133  142.7465  169.3233 C.2     1  UNL1        0.0151
     26 C         142.3553  142.9647  170.7400 C.2     1  UNL1        0.0729
     27 O         141.7209  142.1835  171.8524 O.co2   1  UNL1       -0.5446
     28 O         143.4316  143.9641  171.0443 O.co2   1  UNL1       -0.5446
     29 C         138.3986  139.6366  163.7520 C.3     1  UNL1        0.1052
     30 C         138.7605  138.4553  164.6026 C.3     1  UNL1        0.1486
     31 C         139.2065  137.7110  163.3791 C.3     1  UNL1        0.0368
     32 C         138.3145  139.1995  165.8261 C.3     1  UNL1        0.0368
     33 F         139.1224  137.2739  165.4531 F       1  UNL1       -0.2386
@<TRIPOS>UNITY_ATOM_ATTR
27 1
charge -1
@<TRIPOS>BOND
     1     2     1    1
     2     2     3    1
     3     3     4    1
     4     4     5    1
     5     5     6   ar
     6     6     7   ar
     7     7     8   ar
     8     8     9   ar
     9     9    10   ar
    10    10    11    1
    11    11    12    1
    12    12    13    1
    13    13    16    1
    14    16    17   ar
    15    17    18    1
    16    17    19   ar
    17    19    20   ar
    18    20    24    1
    19    24    25    2
    20    25    26    1
    21    26    27   ar
    22    26    28   ar
    23    20    21   ar
    24    21    22   ar
    25    22    23    1
    26    13    14    1
    27    14    29    1
    28    29    30    1
    29    30    31    1
    30    30    32    1
    31    30    33    1
    32    14     2    1
    33    12     4    1
    34    22    16   ar
    35    10     5   ar
    36    11    15    1
@<TRIPOS>MOLECULE
*****
 33 36 0 0 0
SMALL
GASTEIGER

@<TRIPOS>ATOM
      1 C         137.5028  139.2349  160.9620 C.3     1  UNL1        0.0174
      2 C         138.8478  139.8534  161.2041 C.3     1  UNL1        0.0583
      3 C         139.7202  140.2296  160.0433 C.3     1  UNL1        0.0221
      4 C         141.0651  140.8480  160.2853 C.3     1  UNL1        0.0444
      5 C         142.1366  141.3193  159.3473 C.ar    1  UNL1       -0.0077
      6 C         142.2255  141.3316  157.8501 C.ar    1  UNL1       -0.0030
      7 C         143.4493  141.8774  157.1759 C.ar    1  UNL1       -0.0002
      8 C         144.5841  142.4109  157.9991 C.ar    1  UNL1        0.0012
      9 C         144.4952  142.3986  159.4963 C.ar    1  UNL1        0.0140
     10 C         143.2714  141.8528  160.1705 C.ar    1  UNL1        0.0406
     11 N         142.9013  141.7112  161.6172 N.pl3   1  UNL1       -0.3326
     12 C         141.5377  141.0902  161.6882 C.3     1  UNL1        0.0923
     13 C         140.6653  140.7140  162.8490 C.3     1  UNL1        0.1029
     14 N         139.3204  140.0956  162.6069 N.3     1  UNL1       -0.2679
     15 H         143.4559  141.9789  162.3853 H       1  UNL1        0.1468
     16 C         141.1379  140.9562  164.2518 C.ar    1  UNL1        0.0487
     17 C         140.7577  142.2207  164.9636 C.ar    1  UNL1        0.1396
     18 F         139.9049  143.2429  164.2723 F       1  UNL1       -0.2044
     19 C         141.2302  142.4630  166.3664 C.ar    1  UNL1        0.0295
     20 C         142.0830  141.4407  167.0576 C.ar    1  UNL1        0.0045
     21 C         142.4632  140.1762  166.3459 C.ar    1  UNL1        0.0295
     22 C         141.9906  139.9340  164.9430 C.ar    1  UNL1        0.1396
     23 F         142.3709  138.6695  164.2313 F       1  UNL1       -0.2044
     24 C         142.5556  141.6829  168.4604 C.2     1  UNL1        0.0013
     25 C         141.8346  142.6647  169.3358 C.2     1  UNL1        0.0151
     26 C         142.3071  142.9069  170.7386 C.2     1  UNL1        0.0729
     27 O         143.3966  143.9040  171.0014 O.co2   1  UNL1       -0.5446
     28 O         141.6903  142.1522  171.8786 O.co2   1  UNL1       -0.5446
     29 C         138.4480  139.7194  163.7677 C.3     1  UNL1        0.1052
     30 C         138.8078  138.5430  164.6260 C.3     1  UNL1        0.1486
     31 C         138.4135  139.3154  165.8499 C.3     1  UNL1        0.0368
     32 C         139.2021  137.7706  163.4021 C.3     1  UNL1        0.0368
     33 F         139.1676  137.3666  165.4843 F       1  UNL1       -0.2386
@<TRIPOS>UNITY_ATOM_ATTR
27 1
charge -1
@<TRIPOS>BOND
     1     2     1    1
     2     2     3    1
     3     3     4    1
     4     4     5    1
     5     5     6   ar
     6     6     7   ar
     7     7     8   ar
     8     8     9   ar
     9     9    10   ar
    10    10    11    1
    11    11    12    1
    12    12    13    1
    13    13    16    1
    14    16    17   ar
    15    17    18    1
    16    17    19   ar
    17    19    20   ar
    18    20    24    1
    19    24    25    2
    20    25    26    1
    21    26    27   ar
    22    26    28   ar
    23    20    21   ar
    24    21    22   ar
    25    22    23    1
    26    13    14    1
    27    14    29    1
    28    29    30    1
    29    30    31    1
    30    30    32    1
    31    30    33    1
    32    14     2    1
    33    12     4    1
    34    22    16   ar
    35    10     5   ar
    36    11    15    1
@<TRIPOS>MOLECULE
*****
 33 36 0 0 0
SMALL
GASTEIGER

@<TRIPOS>ATOM
      1 C         137.3687  138.3767  166.9703 C.3     1  UNL1        0.0174
      2 C         138.6961  139.0622  166.8350 C.3     1  UNL1        0.0583
      3 C         139.2915  139.7821  168.0086 C.3     1  UNL1        0.0221
      4 C         140.6188  140.4675  167.8734 C.3     1  UNL1        0.0444
      5 C         141.4483  141.2498  168.8480 C.ar    1  UNL1       -0.0077
      6 C         141.2311  141.6112  170.2875 C.ar    1  UNL1       -0.0030
      7 C         142.2586  142.4217  171.0205 C.ar    1  UNL1       -0.0002
      8 C         143.5033  142.8708  170.3140 C.ar    1  UNL1        0.0012
      9 C         143.7205  142.5094  168.8745 C.ar    1  UNL1        0.0140
     10 C         142.6930  141.6989  168.1415 C.ar    1  UNL1        0.0406
     11 N         142.6327  141.1941  166.7303 N.pl3   1  UNL1       -0.3326
     12 C         141.3507  140.4331  166.5646 C.3     1  UNL1        0.0923
     13 C         140.7553  139.7132  165.3910 C.3     1  UNL1        0.1029
     14 N         139.4280  139.0278  165.5262 N.3     1  UNL1       -0.2679
     15 H         143.3147  141.3372  166.0349 H       1  UNL1        0.1468
     16 C         141.4873  139.6788  164.0821 C.ar    1  UNL1        0.0487
     17 C         142.2674  138.4587  163.6909 C.ar    1  UNL1        0.1396
     18 F         142.3154  137.2732  164.6086 F       1  UNL1       -0.2044
     19 C         142.9993  138.4243  162.3821 C.ar    1  UNL1        0.0295
     20 C         142.9512  139.6099  161.4645 C.ar    1  UNL1        0.0045
     21 C         142.1712  140.8299  161.8557 C.ar    1  UNL1        0.0295
     22 C         141.4392  140.8644  163.1645 C.ar    1  UNL1        0.1396
     23 F         140.6592  142.0844  163.5557 F       1  UNL1       -0.2044
     24 C         143.6832  139.5755  160.1556 C.2     1  UNL1        0.0013
     25 C         143.6870  140.7835  159.2664 C.2     1  UNL1        0.0151
     26 C         144.4189  140.7491  157.9576 C.2     1  UNL1        0.0729
     27 O         144.3723  139.5162  157.1043 O.co2   1  UNL1       -0.5446
     28 O         145.1975  141.9474  157.5020 O.co2   1  UNL1       -0.5446
     29 C         138.8326  138.3079  164.3526 C.3     1  UNL1        0.1052
     30 C         138.4268  139.0752  163.1292 C.3     1  UNL1        0.1486
     31 C         137.9061  140.1827  163.9965 C.3     1  UNL1        0.0368
     32 C         138.9476  137.9677  162.2619 C.3     1  UNL1        0.0368
     33 F         138.0211  139.8424  161.9059 F       1  UNL1       -0.2386
@<TRIPOS>UNITY_ATOM_ATTR
27 1
charge -1
@<TRIPOS>BOND
     1     2     1    1
     2     2     3    1
     3     3     4    1
     4     4     5    1
     5     5     6   ar
     6     6     7   ar
     7     7     8   ar
     8     8     9   ar
     9     9    10   ar
    10    10    11    1
    11    11    12    1
    12    12    13    1
    13    13    16    1
    14    16    17   ar
    15    17    18    1
    16    17    19   ar
    17    19    20   ar
    18    20    24    1
    19    24    25    2
    20    25    26    1
    21    26    27   ar
    22    26    28   ar
    23    20    21   ar
    24    21    22   ar
    25    22    23    1
    26    13    14    1
    27    14    29    1
    28    29    30    1
    29    30    31    1
    30    30    32    1
    31    30    33    1
    32    14     2    1
    33    12     4    1
    34    22    16   ar
    35    10     5   ar
    36    11    15    1
@<TRIPOS>MOLECULE
*****
 33 36 0 0 0
SMALL
GASTEIGER

@<TRIPOS>ATOM
      1 C         137.3610  138.5835  161.1132 C.3     1  UNL1        0.0174
      2 C         138.2335  139.7822  161.3417 C.3     1  UNL1        0.0583
      3 C         138.4582  140.7684  160.2340 C.3     1  UNL1        0.0221
      4 C         139.3306  141.9670  160.4624 C.3     1  UNL1        0.0444
      5 C         139.7329  143.1010  159.5667 C.ar    1  UNL1       -0.0077
      6 C         139.3987  143.4199  158.1397 C.ar    1  UNL1       -0.0030
      7 C         139.9610  144.6522  157.4952 C.ar    1  UNL1       -0.0002
      8 C         140.8574  145.5654  158.2778 C.ar    1  UNL1        0.0012
      9 C         141.1915  145.2465  159.7048 C.ar    1  UNL1        0.0140
     10 C         140.6293  144.0142  160.3493 C.ar    1  UNL1        0.0406
     11 N         140.7810  143.4446  161.7287 N.pl3   1  UNL1       -0.3326
     12 C         139.9784  142.1794  161.7986 C.3     1  UNL1        0.0923
     13 C         139.7537  141.1932  162.9063 C.3     1  UNL1        0.1029
     14 N         138.8813  139.9946  162.6778 N.3     1  UNL1       -0.2679
     15 H         141.3138  143.8331  162.4597 H       1  UNL1        0.1468
     16 C         140.4015  141.4055  164.2424 C.ar    1  UNL1        0.0487
     17 C         139.6339  142.0602  165.3525 C.ar    1  UNL1        0.1396
     18 F         138.2185  142.5025  165.1263 F       1  UNL1       -0.2044
     19 C         140.2815  142.2727  166.6886 C.ar    1  UNL1        0.0295
     20 C         141.6969  141.8304  166.9148 C.ar    1  UNL1        0.0045
     21 C         142.4645  141.1757  165.8047 C.ar    1  UNL1        0.0295
     22 C         141.8168  140.9633  164.4685 C.ar    1  UNL1        0.1396
     23 F         142.5844  140.3087  163.3585 F       1  UNL1       -0.2044
     24 C         142.3447  142.0428  168.2509 C.2     1  UNL1        0.0013
     25 C         141.5785  142.7013  169.3597 C.2     1  UNL1        0.0151
     26 C         142.2263  142.9137  170.6958 C.2     1  UNL1        0.0729
     27 O         143.3622  143.8838  170.8329 O.co2   1  UNL1       -0.5446
     28 O         141.7382  142.1560  171.8948 O.co2   1  UNL1       -0.5446
     29 C         138.6566  139.0084  163.7855 C.3     1  UNL1        0.1052
     30 C         139.7873  138.1460  164.2627 C.3     1  UNL1        0.1486
     31 C         140.1902  137.8876  162.8411 C.3     1  UNL1        0.0368
     32 C         139.3844  138.4043  165.6843 C.3     1  UNL1        0.0368
     33 F         140.9180  137.2835  164.7398 F       1  UNL1       -0.2386
@<TRIPOS>UNITY_ATOM_ATTR
27 1
charge -1
@<TRIPOS>BOND
     1     2     1    1
     2     2     3    1
     3     3     4    1
     4     4     5    1
     5     5     6   ar
     6     6     7   ar
     7     7     8   ar
     8     8     9   ar
     9     9    10   ar
    10    10    11    1
    11    11    12    1
    12    12    13    1
    13    13    16    1
    14    16    17   ar
    15    17    18    1
    16    17    19   ar
    17    19    20   ar
    18    20    24    1
    19    24    25    2
    20    25    26    1
    21    26    27   ar
    22    26    28   ar
    23    20    21   ar
    24    21    22   ar
    25    22    23    1
    26    13    14    1
    27    14    29    1
    28    29    30    1
    29    30    31    1
    30    30    32    1
    31    30    33    1
    32    14     2    1
    33    12     4    1
    34    22    16   ar
    35    10     5   ar
    36    11    15    1
@<TRIPOS>MOLECULE
*****
 33 36 0 0 0
SMALL
GASTEIGER

@<TRIPOS>ATOM
      1 C         137.6798  137.7971  166.2063 C.3     1  UNL1        0.0174
      2 C         138.4889  139.0471  166.3881 C.3     1  UNL1        0.0583
      3 C         139.1299  139.3396  167.7124 C.3     1  UNL1        0.0221
      4 C         139.9390  140.5895  167.8942 C.3     1  UNL1        0.0444
      5 C         140.6833  141.1406  169.0742 C.ar    1  UNL1       -0.0077
      6 C         140.8701  140.6282  170.4715 C.ar    1  UNL1       -0.0030
      7 C         141.6852  141.4137  171.4556 C.ar    1  UNL1       -0.0002
      8 C         142.3133  142.7117  171.0425 C.ar    1  UNL1        0.0012
      9 C         142.1264  143.2241  169.6452 C.ar    1  UNL1        0.0140
     10 C         141.3114  142.4386  168.6611 C.ar    1  UNL1        0.0406
     11 N         140.9553  142.6896  167.2257 N.pl3   1  UNL1       -0.3326
     12 C         140.1071  141.5469  166.7518 C.3     1  UNL1        0.0923
     13 C         139.4662  141.2544  165.4275 C.3     1  UNL1        0.1029
     14 N         138.6571  140.0045  165.2457 N.3     1  UNL1       -0.2679
     15 H         141.2301  143.4679  166.6890 H       1  UNL1        0.1468
     16 C         139.6343  142.2117  164.2851 C.ar    1  UNL1        0.0487
     17 C         140.8622  142.1460  163.4259 C.ar    1  UNL1        0.1396
     18 F         141.9219  141.1229  163.7094 F       1  UNL1       -0.2044
     19 C         141.0304  143.1033  162.2835 C.ar    1  UNL1        0.0295
     20 C         139.9707  144.1264  162.0002 C.ar    1  UNL1        0.0045
     21 C         138.7429  144.1922  162.8592 C.ar    1  UNL1        0.0295
     22 C         138.5747  143.2348  164.0017 C.ar    1  UNL1        0.1396
     23 F         137.3468  143.3005  164.8608 F       1  UNL1       -0.2044
     24 C         140.1389  145.0838  160.8577 C.2     1  UNL1        0.0013
     25 C         140.9678  144.6953  159.6694 C.2     1  UNL1        0.0151
     26 C         141.1359  145.6527  158.5270 C.2     1  UNL1        0.0729
     27 O         139.9292  146.2145  157.8354 O.co2   1  UNL1       -0.5446
     28 O         142.5107  146.0482  158.0761 O.co2   1  UNL1       -0.5446
     29 C         138.0161  139.7120  163.9214 C.3     1  UNL1        0.1052
     30 C         138.8692  139.3982  162.7282 C.3     1  UNL1        0.1486
     31 C         139.7424  138.5269  163.5817 C.3     1  UNL1        0.0368
     32 C         137.9960  140.2696  161.8748 C.3     1  UNL1        0.0368
     33 F         139.7224  139.0845  161.5351 F       1  UNL1       -0.2386
@<TRIPOS>UNITY_ATOM_ATTR
27 1
charge -1
@<TRIPOS>BOND
     1     2     1    1
     2     2     3    1
     3     3     4    1
     4     4     5    1
     5     5     6   ar
     6     6     7   ar
     7     7     8   ar
     8     8     9   ar
     9     9    10   ar
    10    10    11    1
    11    11    12    1
    12    12    13    1
    13    13    16    1
    14    16    17   ar
    15    17    18    1
    16    17    19   ar
    17    19    20   ar
    18    20    24    1
    19    24    25    2
    20    25    26    1
    21    26    27   ar
    22    26    28   ar
    23    20    21   ar
    24    21    22   ar
    25    22    23    1
    26    13    14    1
    27    14    29    1
    28    29    30    1
    29    30    31    1
    30    30    32    1
    31    30    33    1
    32    14     2    1
    33    12     4    1
    34    22    16   ar
    35    10     5   ar
    36    11    15    1
@<TRIPOS>MOLECULE
*****
 33 36 0 0 0
SMALL
GASTEIGER

@<TRIPOS>ATOM
      1 C         145.1199  142.8486  160.6064 C.3     1  UNL1        0.0174
      2 C         143.7338  142.4225  160.9904 C.3     1  UNL1        0.0583
      3 C         142.7413  142.0536  159.9279 C.3     1  UNL1        0.0221
      4 C         141.3552  141.6275  160.3118 C.3     1  UNL1        0.0444
      5 C         140.1708  141.2086  159.4923 C.ar    1  UNL1       -0.0077
      6 C         139.9718  141.0741  158.0117 C.ar    1  UNL1       -0.0030
      7 C         138.6472  140.6236  157.4709 C.ar    1  UNL1       -0.0002
      8 C         137.5216  140.3076  158.4108 C.ar    1  UNL1        0.0012
      9 C         137.7207  140.4421  159.8914 C.ar    1  UNL1        0.0140
     10 C         139.0453  140.8927  160.4321 C.ar    1  UNL1        0.0406
     11 N         139.5341  141.1163  161.8325 N.pl3   1  UNL1       -0.3326
     12 C         140.9618  141.5705  161.7582 C.3     1  UNL1        0.0923
     13 C         141.9543  141.9394  162.8206 C.3     1  UNL1        0.1029
     14 N         143.3403  142.3655  162.4367 N.3     1  UNL1       -0.2679
     15 H         139.0099  140.9876  162.6559 H       1  UNL1        0.1468
     16 C         141.5608  141.8824  164.2669 C.ar    1  UNL1        0.0487
     17 C         141.8906  140.6702  165.0867 C.ar    1  UNL1        0.1396
     18 F         142.6139  139.5152  164.4600 F       1  UNL1       -0.2044
     19 C         141.4972  140.6131  166.5330 C.ar    1  UNL1        0.0295
     20 C         140.7739  141.7681  167.1597 C.ar    1  UNL1        0.0045
     21 C         140.4441  142.9803  166.3400 C.ar    1  UNL1        0.0295
     22 C         140.8375  143.0374  164.8935 C.ar    1  UNL1        0.1396
     23 F         140.5077  144.2495  164.0739 F       1  UNL1       -0.2044
     24 C         140.3804  141.7111  168.6060 C.2     1  UNL1        0.0013
     25 C         140.3753  142.9633  169.4319 C.2     1  UNL1        0.0151
     26 C         139.9818  142.9062  170.8782 C.2     1  UNL1        0.0729
     27 O         140.7021  141.9829  171.8156 O.co2   1  UNL1       -0.5446
     28 O         138.8680  143.7724  171.3872 O.co2   1  UNL1       -0.5446
     29 C         144.3328  142.7345  163.4992 C.3     1  UNL1        0.1052
     30 C         144.1980  144.0364  164.2319 C.3     1  UNL1        0.1486
     31 C         143.8236  144.7191  162.9498 C.3     1  UNL1        0.0368
     32 C         144.5725  143.3536  165.5139 C.3     1  UNL1        0.0368
     33 F         144.0632  145.3382  164.9646 F       1  UNL1       -0.2386
@<TRIPOS>UNITY_ATOM_ATTR
27 1
charge -1
@<TRIPOS>BOND
     1     2     1    1
     2     2     3    1
     3     3     4    1
     4     4     5    1
     5     5     6   ar
     6     6     7   ar
     7     7     8   ar
     8     8     9   ar
     9     9    10   ar
    10    10    11    1
    11    11    12    1
    12    12    13    1
    13    13    16    1
    14    16    17   ar
    15    17    18    1
    16    17    19   ar
    17    19    20   ar
    18    20    24    1
    19    24    25    2
    20    25    26    1
    21    26    27   ar
    22    26    28   ar
    23    20    21   ar
    24    21    22   ar
    25    22    23    1
    26    13    14    1
    27    14    29    1
    28    29    30    1
    29    30    31    1
    30    30    32    1
    31    30    33    1
    32    14     2    1
    33    12     4    1
    34    22    16   ar
    35    10     5   ar
    36    11    15    1
