@<TRIPOS>MOLECULE
*****
 26 28 0 0 0
SMALL
GASTEIGER

@<TRIPOS>ATOM
      1 C         137.7219  140.4865  162.8735 C.ar    1  UNL1        0.1384
      2 C         137.4457  139.6964  161.6287 C.ar    1  UNL1        0.0608
      3 C         137.9046  138.2720  161.5273 C.ar    1  UNL1        0.1023
      4 N         138.6395  137.6375  162.6708 N.ar    1  UNL1       -0.2436
      5 C         138.9156  138.4276  163.9156 C.ar    1  UNL1        0.0847
      6 C         139.6505  137.7932  165.0590 C.ar    1  UNL1        0.0205
      7 C         139.9266  138.5832  166.3038 C.ar    1  UNL1        0.0199
      8 C         139.4678  140.0078  166.4052 C.ar    1  UNL1        0.1057
      9 C         138.7329  140.6422  165.2618 C.ar    1  UNL1        0.0232
     10 C         138.4568  139.8521  164.0169 C.ar    1  UNL1        0.0558
     11 S         139.7439  140.7978  167.6500 S.O2    1  UNL1        0.0054
     12 O         140.3009  141.9144  166.8177 O.2     1  UNL1       -0.1687
     13 O         139.1868  139.6811  168.4822 O.2     1  UNL1       -0.1687
     14 C         140.0200  141.5879  168.8948 C.3     1  UNL1        0.1151
     15 C         140.6856  142.6511  168.0724 C.3     1  UNL1        0.0240
     16 C         139.3544  140.5247  169.7173 C.3     1  UNL1        0.0240
     17 C         140.2961  142.3780  170.1396 C.3     1  UNL1        0.0240
     18 N         137.2630  141.9110  162.9749 N.pl3   1  UNL1       -0.2004
     19 H         136.4359  142.1283  163.4627 H       1  UNL1        0.2982
     20 C         140.1429  146.2823  162.2824 C.3     1  UNL1        0.0519
     21 C         139.3882  145.0138  162.0149 C.2     1  UNL1        0.0948
     22 N         139.2075  144.3610  160.6766 N.2     1  UNL1       -0.0428
     23 N         138.3894  143.1192  160.8733 N.2     1  UNL1        0.0753
     24 C         138.0645  143.0046  162.3332 C.2     1  UNL1        0.3331
     25 C         138.6818  144.1755  163.0387 C.3     1  UNL1        0.1480
     26 C         138.6061  144.4585  164.5099 C.3     1  UNL1        0.0190
@<TRIPOS>BOND
     1    20    21    1
     2    21    22    2
     3    22    23    1
     4    23    24    2
     5    24    18    1
     6    18     1    1
     7     1     2   ar
     8     2     3   ar
     9     3     4   ar
    10     4     5   ar
    11     5     6   ar
    12     6     7   ar
    13     7     8   ar
    14     8    11    1
    15    11    12    2
    16    11    13    2
    17    11    14    1
    18    14    15    1
    19    14    16    1
    20    14    17    1
    21     8     9   ar
    22     9    10   ar
    23    24    25    1
    24    25    26    1
    25    25    21    1
    26    10     1   ar
    27    10     5   ar
    28    18    19    1
@<TRIPOS>MOLECULE
*****
 26 28 0 0 0
SMALL
GASTEIGER

@<TRIPOS>ATOM
      1 C         137.8640  140.1017  163.0059 C.ar    1  UNL1        0.1384
      2 C         137.7788  139.3232  161.7266 C.ar    1  UNL1        0.0608
      3 C         138.6409  138.1122  161.5268 C.ar    1  UNL1        0.1023
      4 N         139.5883  137.6796  162.6063 N.ar    1  UNL1       -0.2436
      5 C         139.6736  138.4581  163.8856 C.ar    1  UNL1        0.0847
      6 C         140.6210  138.0255  164.9651 C.ar    1  UNL1        0.0205
      7 C         140.7062  138.8040  166.2444 C.ar    1  UNL1        0.0199
      8 C         139.8439  140.0151  166.4443 C.ar    1  UNL1        0.1057
      9 C         138.8965  140.4476  165.3648 C.ar    1  UNL1        0.0232
     10 C         138.8114  139.6691  164.0854 C.ar    1  UNL1        0.0558
     11 S         139.9291  140.7935  167.7236 S.O2    1  UNL1        0.0054
     12 O         140.5315  141.9488  166.9805 O.2     1  UNL1       -0.1687
     13 O         139.3267  139.6382  168.4667 O.2     1  UNL1       -0.1687
     14 C         140.0144  141.5720  169.0030 C.3     1  UNL1        0.1151
     15 C         140.7687  142.6567  168.2927 C.3     1  UNL1        0.0240
     16 C         139.2601  140.4874  169.7132 C.3     1  UNL1        0.0240
     17 C         140.0996  142.3505  170.2823 C.3     1  UNL1        0.0240
     18 N         137.0017  141.3128  163.2058 N.pl3   1  UNL1       -0.2004
     19 H         136.0235  141.2169  163.2613 H       1  UNL1        0.2982
     20 C         139.6027  145.7579  162.0408 C.3     1  UNL1        0.0519
     21 C         138.8256  144.7132  162.7856 C.2     1  UNL1        0.0948
     22 N         138.3682  144.8038  164.2112 N.2     1  UNL1       -0.0428
     23 N         137.6293  143.5411  164.5422 N.2     1  UNL1        0.0753
     24 C         137.6300  142.6700  163.3210 C.2     1  UNL1        0.3331
     25 C         138.3693  143.3944  162.2354 C.3     1  UNL1        0.1480
     26 C         138.6102  142.8888  160.8439 C.3     1  UNL1        0.0190
@<TRIPOS>BOND
     1    20    21    1
     2    21    22    2
     3    22    23    1
     4    23    24    2
     5    24    18    1
     6    18     1    1
     7     1     2   ar
     8     2     3   ar
     9     3     4   ar
    10     4     5   ar
    11     5     6   ar
    12     6     7   ar
    13     7     8   ar
    14     8    11    1
    15    11    12    2
    16    11    13    2
    17    11    14    1
    18    14    15    1
    19    14    16    1
    20    14    17    1
    21     8     9   ar
    22     9    10   ar
    23    24    25    1
    24    25    26    1
    25    25    21    1
    26    10     1   ar
    27    10     5   ar
    28    18    19    1
@<TRIPOS>MOLECULE
*****
 26 28 0 0 0
SMALL
GASTEIGER

@<TRIPOS>ATOM
      1 C         143.4808  142.7538  164.1206 C.ar    1  UNL1        0.1384
      2 C         144.2884  142.8404  162.8596 C.ar    1  UNL1        0.0608
      3 C         145.0402  141.6398  162.3665 C.ar    1  UNL1        0.1023
      4 N         144.9844  140.3525  163.1345 N.ar    1  UNL1       -0.2436
      5 C         144.1768  140.2658  164.3955 C.ar    1  UNL1        0.0847
      6 C         144.1209  138.9785  165.1634 C.ar    1  UNL1        0.0205
      7 C         143.3133  138.8919  166.4244 C.ar    1  UNL1        0.0199
      8 C         142.5614  140.0926  166.9176 C.ar    1  UNL1        0.1057
      9 C         142.6173  141.3799  166.1496 C.ar    1  UNL1        0.0232
     10 C         143.4250  141.4665  164.8885 C.ar    1  UNL1        0.0558
     11 S         141.7538  140.0060  168.1785 S.O2    1  UNL1        0.0054
     12 O         140.4949  140.1954  167.3853 O.2     1  UNL1       -0.1687
     13 O         143.0127  139.8165  168.9718 O.2     1  UNL1       -0.1687
     14 C         140.9461  139.9193  169.4396 C.3     1  UNL1        0.1151
     15 C         139.7164  140.3194  168.6795 C.3     1  UNL1        0.0240
     16 C         142.1757  139.5193  170.1997 C.3     1  UNL1        0.0240
     17 C         140.1384  139.8327  170.7006 C.3     1  UNL1        0.0240
     18 N         142.7289  143.9545  164.6137 N.pl3   1  UNL1       -0.2004
     19 H         143.0563  144.4527  165.3972 H       1  UNL1        0.2982
     20 C         137.6604  144.4384  163.2147 C.3     1  UNL1        0.0519
     21 C         139.1486  144.6185  163.2699 C.2     1  UNL1        0.0948
     22 N         139.9590  145.5327  162.3996 N.2     1  UNL1       -0.0428
     23 N         141.3988  145.3952  162.7970 N.2     1  UNL1        0.0753
     24 C         141.4783  144.3961  163.9130 C.2     1  UNL1        0.3331
     25 C         140.0876  143.9161  164.2053 C.3     1  UNL1        0.1480
     26 C         139.7032  142.9102  165.2495 C.3     1  UNL1        0.0190
@<TRIPOS>BOND
     1    20    21    1
     2    21    22    2
     3    22    23    1
     4    23    24    2
     5    24    18    1
     6    18     1    1
     7     1     2   ar
     8     2     3   ar
     9     3     4   ar
    10     4     5   ar
    11     5     6   ar
    12     6     7   ar
    13     7     8   ar
    14     8    11    1
    15    11    12    2
    16    11    13    2
    17    11    14    1
    18    14    15    1
    19    14    16    1
    20    14    17    1
    21     8     9   ar
    22     9    10   ar
    23    24    25    1
    24    25    26    1
    25    25    21    1
    26    10     1   ar
    27    10     5   ar
    28    18    19    1
@<TRIPOS>MOLECULE
*****
 26 28 0 0 0
SMALL
GASTEIGER

@<TRIPOS>ATOM
      1 C         142.2079  138.8243  164.2106 C.ar    1  UNL1        0.1384
      2 C         142.0754  138.0536  162.9306 C.ar    1  UNL1        0.0608
      3 C         140.7598  137.4361  162.5597 C.ar    1  UNL1        0.1023
      4 N         139.5765  137.5892  163.4689 N.ar    1  UNL1       -0.2436
      5 C         139.7090  138.3599  164.7489 C.ar    1  UNL1        0.0847
      6 C         138.5258  138.5131  165.6580 C.ar    1  UNL1        0.0205
      7 C         138.6582  139.2837  166.9380 C.ar    1  UNL1        0.0199
      8 C         139.9740  139.9013  167.3089 C.ar    1  UNL1        0.1057
      9 C         141.1572  139.7482  166.3998 C.ar    1  UNL1        0.0232
     10 C         141.0247  138.9774  165.1197 C.ar    1  UNL1        0.0558
     11 S         140.1064  140.6720  168.5889 S.O2    1  UNL1        0.0054
     12 O         139.0866  139.7795  169.2318 O.2     1  UNL1       -0.1687
     13 O         141.1262  141.5645  167.9460 O.2     1  UNL1       -0.1687
     14 C         140.2388  141.4427  169.8690 C.3     1  UNL1        0.1151
     15 C         140.3729  142.7165  169.0883 C.3     1  UNL1        0.0240
     16 C         140.1048  140.1690  170.6497 C.3     1  UNL1        0.0240
     17 C         140.3712  142.2134  171.1491 C.3     1  UNL1        0.0240
     18 N         143.5236  139.4419  164.5815 N.pl3   1  UNL1       -0.2004
     19 H         144.0356  139.0884  165.3445 H       1  UNL1        0.2982
     20 C         144.2747  144.3137  162.6889 C.3     1  UNL1        0.0519
     21 C         144.4044  142.8373  162.9200 C.2     1  UNL1        0.0948
     22 N         145.3622  141.9167  162.2235 N.2     1  UNL1       -0.0428
     23 N         145.1489  140.5327  162.7612 N.2     1  UNL1        0.0753
     24 C         144.0592  140.5980  163.7899 C.2     1  UNL1        0.3331
     25 C         143.5991  142.0223  163.8880 C.3     1  UNL1        0.1480
     26 C         142.5226  142.5406  164.7950 C.3     1  UNL1        0.0190
@<TRIPOS>BOND
     1    20    21    1
     2    21    22    2
     3    22    23    1
     4    23    24    2
     5    24    18    1
     6    18     1    1
     7     1     2   ar
     8     2     3   ar
     9     3     4   ar
    10     4     5   ar
    11     5     6   ar
    12     6     7   ar
    13     7     8   ar
    14     8    11    1
    15    11    12    2
    16    11    13    2
    17    11    14    1
    18    14    15    1
    19    14    16    1
    20    14    17    1
    21     8     9   ar
    22     9    10   ar
    23    24    25    1
    24    25    26    1
    25    25    21    1
    26    10     1   ar
    27    10     5   ar
    28    18    19    1
@<TRIPOS>MOLECULE
*****
 26 28 0 0 0
SMALL
GASTEIGER

@<TRIPOS>ATOM
      1 C         139.3560  139.5888  164.4082 C.ar    1  UNL1        0.1384
      2 C         139.1626  138.5999  163.2971 C.ar    1  UNL1        0.0608
      3 C         140.1730  137.5138  163.0754 C.ar    1  UNL1        0.1023
      4 N         141.3769  137.4165  163.9649 N.ar    1  UNL1       -0.2436
      5 C         141.5704  138.4054  165.0760 C.ar    1  UNL1        0.0847
      6 C         142.7743  138.3082  165.9655 C.ar    1  UNL1        0.0205
      7 C         142.9677  139.2971  167.0766 C.ar    1  UNL1        0.0199
      8 C         141.9572  140.3833  167.2983 C.ar    1  UNL1        0.1057
      9 C         140.7533  140.4805  166.4088 C.ar    1  UNL1        0.0232
     10 C         140.5599  139.4916  165.2976 C.ar    1  UNL1        0.0558
     11 S         142.1506  141.3722  168.4094 S.O2    1  UNL1        0.0054
     12 O         141.2650  142.3489  167.6943 O.2     1  UNL1       -0.1687
     13 O         143.0363  140.3954  169.1246 O.2     1  UNL1       -0.1687
     14 C         142.3440  142.3611  169.5206 C.3     1  UNL1        0.1151
     15 C         140.9086  142.7790  169.3986 C.3     1  UNL1        0.0240
     16 C         143.7794  141.9432  169.6426 C.3     1  UNL1        0.0240
     17 C         142.5375  143.3500  170.6317 C.3     1  UNL1        0.0240
     18 N         138.3455  140.6750  164.6299 N.pl3   1  UNL1       -0.2004
     19 H         137.7385  140.6322  165.4039 H       1  UNL1        0.2982
     20 C         139.0198  145.4144  162.4017 C.3     1  UNL1        0.0519
     21 C         138.5697  144.0049  162.6481 C.2     1  UNL1        0.0948
     22 N         137.6859  143.1917  161.7494 N.2     1  UNL1       -0.0428
     23 N         137.4944  141.8453  162.3824 N.2     1  UNL1        0.0753
     24 C         138.2597  141.8264  163.6723 C.2     1  UNL1        0.3331
     25 C         138.9243  143.1611  163.8365 C.3     1  UNL1        0.1480
     26 C         139.7913  143.5787  164.9871 C.3     1  UNL1        0.0190
@<TRIPOS>BOND
     1    20    21    1
     2    21    22    2
     3    22    23    1
     4    23    24    2
     5    24    18    1
     6    18     1    1
     7     1     2   ar
     8     2     3   ar
     9     3     4   ar
    10     4     5   ar
    11     5     6   ar
    12     6     7   ar
    13     7     8   ar
    14     8    11    1
    15    11    12    2
    16    11    13    2
    17    11    14    1
    18    14    15    1
    19    14    16    1
    20    14    17    1
    21     8     9   ar
    22     9    10   ar
    23    24    25    1
    24    25    26    1
    25    25    21    1
    26    10     1   ar
    27    10     5   ar
    28    18    19    1
@<TRIPOS>MOLECULE
*****
 26 28 0 0 0
SMALL
GASTEIGER

@<TRIPOS>ATOM
      1 C         143.9269  139.2819  162.3996 C.ar    1  UNL1        0.1384
      2 C         144.1083  138.7495  161.0091 C.ar    1  UNL1        0.0608
      3 C         143.1280  137.7610  160.4506 C.ar    1  UNL1        0.1023
      4 N         141.9663  137.3049  161.2827 N.ar    1  UNL1       -0.2436
      5 C         141.7849  137.8372  162.6732 C.ar    1  UNL1        0.0847
      6 C         140.6231  137.3811  163.5053 C.ar    1  UNL1        0.0205
      7 C         140.4417  137.9135  164.8958 C.ar    1  UNL1        0.0199
      8 C         141.4220  138.9020  165.4544 C.ar    1  UNL1        0.1057
      9 C         142.5837  139.3581  164.6223 C.ar    1  UNL1        0.0232
     10 C         142.7651  138.8257  163.2317 C.ar    1  UNL1        0.0558
     11 S         141.2405  139.4343  166.8449 S.O2    1  UNL1        0.0054
     12 O         139.7719  139.6012  166.5894 O.2     1  UNL1       -0.1687
     13 O         142.7091  139.2675  167.1004 O.2     1  UNL1       -0.1687
     14 C         141.0590  139.9667  168.2355 C.3     1  UNL1        0.1151
     15 C         139.5755  140.0213  168.0210 C.3     1  UNL1        0.0240
     16 C         142.5426  139.9121  168.4500 C.3     1  UNL1        0.0240
     17 C         140.8776  140.4991  169.6261 C.3     1  UNL1        0.0240
     18 N         144.9071  140.2704  162.9582 N.pl3   1  UNL1       -0.2004
     19 H         145.7151  139.9536  163.4229 H       1  UNL1        0.2982
     20 C         143.6861  145.2921  164.0409 C.3     1  UNL1        0.0519
     21 C         144.0951  144.0500  163.3062 C.2     1  UNL1        0.0948
     22 N         144.4456  143.9617  161.8504 N.2     1  UNL1       -0.0428
     23 N         144.7925  142.5351  161.5429 N.2     1  UNL1        0.0753
     24 C         144.6563  141.7417  162.8085 C.2     1  UNL1        0.3331
     25 C         144.2253  142.6780  163.8983 C.3     1  UNL1        0.1480
     26 C         143.9694  142.3073  165.3291 C.3     1  UNL1        0.0190
@<TRIPOS>BOND
     1    20    21    1
     2    21    22    2
     3    22    23    1
     4    23    24    2
     5    24    18    1
     6    18     1    1
     7     1     2   ar
     8     2     3   ar
     9     3     4   ar
    10     4     5   ar
    11     5     6   ar
    12     6     7   ar
    13     7     8   ar
    14     8    11    1
    15    11    12    2
    16    11    13    2
    17    11    14    1
    18    14    15    1
    19    14    16    1
    20    14    17    1
    21     8     9   ar
    22     9    10   ar
    23    24    25    1
    24    25    26    1
    25    25    21    1
    26    10     1   ar
    27    10     5   ar
    28    18    19    1
@<TRIPOS>MOLECULE
*****
 26 28 0 0 0
SMALL
GASTEIGER

@<TRIPOS>ATOM
      1 C         141.1692  144.2031  163.7631 C.ar    1  UNL1        0.1384
      2 C         141.2780  145.5290  163.0702 C.ar    1  UNL1        0.0608
      3 C         140.2053  145.9679  162.1181 C.ar    1  UNL1        0.1023
      4 N         139.0237  145.0810  161.8589 N.ar    1  UNL1       -0.2436
      5 C         138.9149  143.7551  162.5518 C.ar    1  UNL1        0.0847
      6 C         137.7333  142.8681  162.2926 C.ar    1  UNL1        0.0205
      7 C         137.6244  141.5422  162.9855 C.ar    1  UNL1        0.0199
      8 C         138.6972  141.1032  163.9376 C.ar    1  UNL1        0.1057
      9 C         139.8788  141.9902  164.1968 C.ar    1  UNL1        0.0232
     10 C         139.9876  143.3161  163.5039 C.ar    1  UNL1        0.0558
     11 S         138.5883  139.7774  164.6305 S.O2    1  UNL1        0.0054
     12 O         138.9022  140.4364  165.9409 O.2     1  UNL1       -0.1687
     13 O         138.2745  139.1183  163.3201 O.2     1  UNL1       -0.1687
     14 C         138.4795  138.4514  165.3235 C.3     1  UNL1        0.1151
     15 C         137.9607  139.1365  166.5529 C.3     1  UNL1        0.0240
     16 C         138.9982  137.7664  164.0941 C.3     1  UNL1        0.0240
     17 C         138.3706  137.1255  166.0164 C.3     1  UNL1        0.0240
     18 N         142.2419  143.7641  164.7153 N.pl3   1  UNL1       -0.2004
     19 H         142.2623  144.1212  165.6325 H       1  UNL1        0.2982
     20 C         145.2304  139.4246  164.3706 C.3     1  UNL1        0.0519
     21 C         144.6573  140.7864  164.1115 C.2     1  UNL1        0.0948
     22 N         145.1161  141.7501  163.0575 N.2     1  UNL1       -0.0428
     23 N         144.2671  142.9828  163.1555 N.2     1  UNL1        0.0753
     24 C         143.2836  142.7810  164.2699 C.2     1  UNL1        0.3331
     25 C         143.5248  141.4235  164.8607 C.3     1  UNL1        0.1480
     26 C         142.7666  140.8108  166.0007 C.3     1  UNL1        0.0190
@<TRIPOS>BOND
     1    20    21    1
     2    21    22    2
     3    22    23    1
     4    23    24    2
     5    24    18    1
     6    18     1    1
     7     1     2   ar
     8     2     3   ar
     9     3     4   ar
    10     4     5   ar
    11     5     6   ar
    12     6     7   ar
    13     7     8   ar
    14     8    11    1
    15    11    12    2
    16    11    13    2
    17    11    14    1
    18    14    15    1
    19    14    16    1
    20    14    17    1
    21     8     9   ar
    22     9    10   ar
    23    24    25    1
    24    25    26    1
    25    25    21    1
    26    10     1   ar
    27    10     5   ar
    28    18    19    1
@<TRIPOS>MOLECULE
*****
 26 28 0 0 0
SMALL
GASTEIGER

@<TRIPOS>ATOM
      1 C         141.1723  141.5897  167.6883 C.ar    1  UNL1        0.1384
      2 C         141.5060  141.6335  169.1500 C.ar    1  UNL1        0.0608
      3 C         140.7254  140.8003  170.1228 C.ar    1  UNL1        0.1023
      4 N         139.6110  139.9233  169.6339 N.ar    1  UNL1       -0.2436
      5 C         139.2773  139.8795  168.1721 C.ar    1  UNL1        0.0847
      6 C         138.1629  139.0025  167.6832 C.ar    1  UNL1        0.0205
      7 C         137.8291  138.9587  166.2215 C.ar    1  UNL1        0.0199
      8 C         138.6098  139.7919  165.2486 C.ar    1  UNL1        0.1057
      9 C         139.7241  140.6689  165.7376 C.ar    1  UNL1        0.0232
     10 C         140.0579  140.7127  167.1994 C.ar    1  UNL1        0.0558
     11 S         138.2760  139.7482  163.7869 S.O2    1  UNL1        0.0054
     12 O         138.7706  138.3338  163.7164 O.2     1  UNL1       -0.1687
     13 O         137.7814  141.1625  163.8575 O.2     1  UNL1       -0.1687
     14 C         137.9422  139.7043  162.3251 C.3     1  UNL1        0.1151
     15 C         138.2868  138.2449  162.2902 C.3     1  UNL1        0.0240
     16 C         137.5976  141.1637  162.3601 C.3     1  UNL1        0.0240
     17 C         137.6085  139.6605  160.8634 C.3     1  UNL1        0.0240
     18 N         141.9529  142.4229  166.7154 N.pl3   1  UNL1       -0.2004
     19 H         141.7851  143.3908  166.6507 H       1  UNL1        0.2982
     20 C         145.8694  141.7450  163.2394 C.3     1  UNL1        0.0519
     21 C         144.7895  141.4697  164.2433 C.2     1  UNL1        0.0948
     22 N         144.3785  140.1182  164.7480 N.2     1  UNL1       -0.0428
     23 N         143.2659  140.3108  165.7355 N.2     1  UNL1        0.0753
     24 C         142.9892  141.7813  165.8411 C.2     1  UNL1        0.3331
     25 C         143.9308  142.4975  164.9189 C.3     1  UNL1        0.1480
     26 C         144.0014  143.9811  164.7091 C.3     1  UNL1        0.0190
@<TRIPOS>BOND
     1    20    21    1
     2    21    22    2
     3    22    23    1
     4    23    24    2
     5    24    18    1
     6    18     1    1
     7     1     2   ar
     8     2     3   ar
     9     3     4   ar
    10     4     5   ar
    11     5     6   ar
    12     6     7   ar
    13     7     8   ar
    14     8    11    1
    15    11    12    2
    16    11    13    2
    17    11    14    1
    18    14    15    1
    19    14    16    1
    20    14    17    1
    21     8     9   ar
    22     9    10   ar
    23    24    25    1
    24    25    26    1
    25    25    21    1
    26    10     1   ar
    27    10     5   ar
    28    18    19    1
@<TRIPOS>MOLECULE
*****
 26 28 0 0 0
SMALL
GASTEIGER

@<TRIPOS>ATOM
      1 C         140.6906  140.5543  163.3868 C.ar    1  UNL1        0.1384
      2 C         140.3458  139.9268  162.0687 C.ar    1  UNL1        0.0608
      3 C         139.3048  138.8490  162.0007 C.ar    1  UNL1        0.1023
      4 N         138.6086  138.3987  163.2508 N.ar    1  UNL1       -0.2436
      5 C         138.9535  139.0262  164.5688 C.ar    1  UNL1        0.0847
      6 C         138.2573  138.5759  165.8189 C.ar    1  UNL1        0.0205
      7 C         138.6022  139.2034  167.1369 C.ar    1  UNL1        0.0199
      8 C         139.6432  140.2812  167.2050 C.ar    1  UNL1        0.1057
      9 C         140.3394  140.7315  165.9549 C.ar    1  UNL1        0.0232
     10 C         139.9945  140.1040  164.6368 C.ar    1  UNL1        0.0558
     11 S         139.9881  140.9087  168.5230 S.O2    1  UNL1        0.0054
     12 O         139.5262  139.6708  169.2331 O.2     1  UNL1       -0.1687
     13 O         140.4500  142.1465  167.8129 O.2     1  UNL1       -0.1687
     14 C         140.3329  141.5362  169.8412 C.3     1  UNL1        0.1151
     15 C         140.5027  142.8641  169.1647 C.3     1  UNL1        0.0240
     16 C         140.1631  140.2082  170.5177 C.3     1  UNL1        0.0240
     17 C         140.6778  142.1635  171.1592 C.3     1  UNL1        0.0240
     18 N         141.7317  141.6321  163.4548 N.pl3   1  UNL1       -0.2004
     19 H         142.5349  141.5063  164.0099 H       1  UNL1        0.2982
     20 C         139.8541  146.2818  161.8008 C.3     1  UNL1        0.0519
     21 C         140.6857  145.0389  161.9168 C.2     1  UNL1        0.0948
     22 N         141.8488  144.6716  161.0437 N.2     1  UNL1       -0.0428
     23 N         142.3822  143.3507  161.5136 N.2     1  UNL1        0.0753
     24 C         141.5487  142.9016  162.6771 C.2     1  UNL1        0.3331
     25 C         140.5003  143.9450  162.9263 C.3     1  UNL1        0.1480
     26 C         139.4506  143.9020  163.9969 C.3     1  UNL1        0.0190
@<TRIPOS>BOND
     1    20    21    1
     2    21    22    2
     3    22    23    1
     4    23    24    2
     5    24    18    1
     6    18     1    1
     7     1     2   ar
     8     2     3   ar
     9     3     4   ar
    10     4     5   ar
    11     5     6   ar
    12     6     7   ar
    13     7     8   ar
    14     8    11    1
    15    11    12    2
    16    11    13    2
    17    11    14    1
    18    14    15    1
    19    14    16    1
    20    14    17    1
    21     8     9   ar
    22     9    10   ar
    23    24    25    1
    24    25    26    1
    25    25    21    1
    26    10     1   ar
    27    10     5   ar
    28    18    19    1
