@<TRIPOS>MOLECULE
*****
 28 31 0 0 0
SMALL
GASTEIGER

@<TRIPOS>ATOM
      1 C         137.2944  138.0947  167.2369 C.3     1  UNL1        0.0420
      2 C         138.2647  139.1417  166.7760 C.3     1  UNL1        0.1912
      3 O         138.3734  139.4734  165.3172 O.3     1  UNL1       -0.3500
      4 C         139.3438  140.5203  164.8564 C.3     1  UNL1        0.1145
      5 C         140.3141  141.5673  164.3956 C.3     1  UNL1        0.0463
      6 C         140.4228  141.8989  162.9368 C.3     1  UNL1        0.0746
      7 N         139.5612  141.1836  161.9388 N.3     1  UNL1       -0.2722
      8 C         138.5909  140.1367  162.3996 C.3     1  UNL1        0.0746
      9 C         138.4822  139.8050  163.8584 C.3     1  UNL1        0.0463
     10 C         140.2054  141.2356  165.8544 C.3     1  UNL1        0.1254
     11 N         140.0966  140.9039  167.3132 N.am    1  UNL1       -0.2535
     12 C         139.1263  139.8570  167.7740 C.2     1  UNL1        0.2566
     13 O         139.0176  139.5253  169.2329 O.2     1  UNL1       -0.2719
     14 C         140.9582  141.6192  168.3112 C.ar    1  UNL1        0.0645
     15 C         140.4718  142.8859  168.9506 C.ar    1  UNL1        0.0158
     16 C         141.3334  143.6012  169.9486 C.ar    1  UNL1        0.0013
     17 C         142.6814  143.0498  170.3072 C.ar    1  UNL1        0.0009
     18 C         143.1680  141.7830  169.6679 C.ar    1  UNL1        0.0127
     19 C         142.3064  141.0677  168.6699 C.ar    1  UNL1        0.0713
     20 CL        142.7928  139.8010  168.0305 Cl      1  UNL1       -0.0809
     21 C         139.6699  141.5153  160.4799 C.3     1  UNL1        0.0768
     22 C         140.6971  140.8289  159.6292 C.3     1  UNL1        0.0437
     23 C         141.7458  139.9674  160.2682 C.ar    1  UNL1       -0.0208
     24 C         141.4770  138.5112  160.5068 C.ar    1  UNL1       -0.0042
     25 C         142.5257  137.6498  161.1457 C.ar    1  UNL1       -0.0003
     26 C         143.8432  138.2447  161.5459 C.ar    1  UNL1       -0.0000
     27 C         144.1121  139.7010  161.3073 C.ar    1  UNL1       -0.0003
     28 C         143.0634  140.5623  160.6684 C.ar    1  UNL1       -0.0042
@<TRIPOS>BOND
     1     1     2    1
     2     2     3    1
     3     3     4    1
     4     4     5    1
     5     5     6    1
     6     6     7    1
     7     7    21    1
     8    21    22    1
     9    22    23    1
    10    23    24   ar
    11    24    25   ar
    12    25    26   ar
    13    26    27   ar
    14    27    28   ar
    15     7     8    1
    16     8     9    1
    17     4    10    1
    18    10    11    1
    19    11    14    1
    20    14    15   ar
    21    15    16   ar
    22    16    17   ar
    23    17    18   ar
    24    18    19   ar
    25    19    20    1
    26    11    12   am
    27    12    13    2
    28    12     2    1
    29     9     4    1
    30    19    14   ar
    31    28    23   ar
@<TRIPOS>MOLECULE
*****
 28 31 0 0 0
SMALL
GASTEIGER

@<TRIPOS>ATOM
      1 C         137.3762  138.1737  167.1856 C.3     1  UNL1        0.0420
      2 C         138.2019  139.3522  166.7617 C.3     1  UNL1        0.1912
      3 O         138.0875  139.8842  165.3639 O.3     1  UNL1       -0.3500
      4 C         138.9132  141.0626  164.9400 C.3     1  UNL1        0.1145
      5 C         139.7389  142.2410  164.5161 C.3     1  UNL1        0.0463
      6 C         139.6245  142.7730  163.1184 C.3     1  UNL1        0.0746
      7 N         138.6844  142.1267  162.1444 N.3     1  UNL1       -0.2722
      8 C         137.8587  140.9483  162.5683 C.3     1  UNL1        0.0746
      9 C         137.9731  140.4163  163.9661 C.3     1  UNL1        0.0463
     10 C         139.8533  141.7089  165.9139 C.3     1  UNL1        0.1254
     11 N         139.9677  141.1768  167.3117 N.am    1  UNL1       -0.2535
     12 C         139.1420  139.9985  167.7356 C.2     1  UNL1        0.2566
     13 O         139.2564  139.4664  169.1334 O.2     1  UNL1       -0.2719
     14 C         140.9078  141.8232  168.2857 C.ar    1  UNL1        0.0645
     15 C         140.4593  143.0097  169.0862 C.ar    1  UNL1        0.0158
     16 C         141.3994  143.6560  170.0602 C.ar    1  UNL1        0.0013
     17 C         142.7879  143.1158  170.2335 C.ar    1  UNL1        0.0009
     18 C         143.2365  141.9292  169.4329 C.ar    1  UNL1        0.0127
     19 C         142.2964  141.2829  168.4590 C.ar    1  UNL1        0.0713
     20 CL        142.7448  140.0964  167.6584 Cl      1  UNL1       -0.0809
     21 C         138.5700  142.6588  160.7466 C.3     1  UNL1        0.0768
     22 C         139.8033  142.8556  159.9158 C.3     1  UNL1        0.0437
     23 C         139.7703  143.7743  158.7304 C.ar    1  UNL1       -0.0208
     24 C         140.3355  145.1595  158.8392 C.ar    1  UNL1       -0.0042
     25 C         140.3025  146.0781  157.6539 C.ar    1  UNL1       -0.0003
     26 C         139.7045  145.6116  156.3598 C.ar    1  UNL1       -0.0000
     27 C         139.1393  144.2264  156.2511 C.ar    1  UNL1       -0.0003
     28 C         139.1723  143.3078  157.4363 C.ar    1  UNL1       -0.0042
@<TRIPOS>BOND
     1     1     2    1
     2     2     3    1
     3     3     4    1
     4     4     5    1
     5     5     6    1
     6     6     7    1
     7     7    21    1
     8    21    22    1
     9    22    23    1
    10    23    24   ar
    11    24    25   ar
    12    25    26   ar
    13    26    27   ar
    14    27    28   ar
    15     7     8    1
    16     8     9    1
    17     4    10    1
    18    10    11    1
    19    11    14    1
    20    14    15   ar
    21    15    16   ar
    22    16    17   ar
    23    17    18   ar
    24    18    19   ar
    25    19    20    1
    26    11    12   am
    27    12    13    2
    28    12     2    1
    29     9     4    1
    30    19    14   ar
    31    28    23   ar
@<TRIPOS>MOLECULE
*****
 28 31 0 0 0
SMALL
GASTEIGER

@<TRIPOS>ATOM
      1 C         137.1232  137.9767  167.3785 C.3     1  UNL1        0.0420
      2 C         138.1833  138.9014  166.8577 C.3     1  UNL1        0.1912
      3 O         138.4016  139.0354  165.3797 O.3     1  UNL1       -0.3500
      4 C         139.4618  139.9600  164.8589 C.3     1  UNL1        0.1145
      5 C         140.5218  140.8846  164.3382 C.3     1  UNL1        0.0463
      6 C         140.7401  141.0186  162.8602 C.3     1  UNL1        0.0746
      7 N         139.8984  140.2279  161.9030 N.3     1  UNL1       -0.2722
      8 C         138.8383  139.3033  162.4238 C.3     1  UNL1        0.0746
      9 C         138.6200  139.1693  163.9017 C.3     1  UNL1        0.0463
     10 C         140.3035  140.7507  165.8161 C.3     1  UNL1        0.1254
     11 N         140.0852  140.6167  167.2941 N.am    1  UNL1       -0.2535
     12 C         139.0251  139.6921  167.8149 C.2     1  UNL1        0.2566
     13 O         138.8068  139.5581  169.2929 O.2     1  UNL1       -0.2719
     14 C         140.9270  141.4074  168.2513 C.ar    1  UNL1        0.0645
     15 C         140.4059  142.6923  168.8235 C.ar    1  UNL1        0.0158
     16 C         141.2477  143.4829  169.7807 C.ar    1  UNL1        0.0013
     17 C         142.6106  142.9887  170.1657 C.ar    1  UNL1        0.0009
     18 C         143.1317  141.7037  169.5935 C.ar    1  UNL1        0.0127
     19 C         142.2899  140.9130  168.6363 C.ar    1  UNL1        0.0713
     20 CL        142.8110  139.6281  168.0642 Cl      1  UNL1       -0.0809
     21 C         140.1167  140.3619  160.4250 C.3     1  UNL1        0.0768
     22 C         139.4990  139.3717  159.4828 C.3     1  UNL1        0.0437
     23 C         140.3716  138.5446  158.5858 C.ar    1  UNL1       -0.0208
     24 C         139.7997  137.9277  157.3440 C.ar    1  UNL1       -0.0042
     25 C         140.6724  137.1007  156.4471 C.ar    1  UNL1       -0.0003
     26 C         142.1170  136.8906  156.7921 C.ar    1  UNL1       -0.0000
     27 C         142.6889  137.5074  158.0340 C.ar    1  UNL1       -0.0003
     28 C         141.8162  138.3345  158.9308 C.ar    1  UNL1       -0.0042
@<TRIPOS>BOND
     1     1     2    1
     2     2     3    1
     3     3     4    1
     4     4     5    1
     5     5     6    1
     6     6     7    1
     7     7    21    1
     8    21    22    1
     9    22    23    1
    10    23    24   ar
    11    24    25   ar
    12    25    26   ar
    13    26    27   ar
    14    27    28   ar
    15     7     8    1
    16     8     9    1
    17     4    10    1
    18    10    11    1
    19    11    14    1
    20    14    15   ar
    21    15    16   ar
    22    16    17   ar
    23    17    18   ar
    24    18    19   ar
    25    19    20    1
    26    11    12   am
    27    12    13    2
    28    12     2    1
    29     9     4    1
    30    19    14   ar
    31    28    23   ar
@<TRIPOS>MOLECULE
*****
 28 31 0 0 0
SMALL
GASTEIGER

@<TRIPOS>ATOM
      1 C         144.4708  142.4250  160.2131 C.3     1  UNL1        0.0420
      2 C         143.1809  143.1854  160.1228 C.3     1  UNL1        0.1912
      3 O         142.8347  143.9286  158.8667 O.3     1  UNL1       -0.3500
      4 C         141.5448  144.6889  158.7764 C.3     1  UNL1        0.1145
      5 C         140.2549  145.4492  158.6862 C.3     1  UNL1        0.0463
      6 C         139.9088  146.1924  157.4301 C.3     1  UNL1        0.0746
      7 N         140.8524  146.1753  156.2643 N.3     1  UNL1       -0.2722
      8 C         142.1423  145.4150  156.3545 C.3     1  UNL1        0.0746
      9 C         142.4885  144.6718  157.6106 C.3     1  UNL1        0.0463
     10 C         140.6011  144.7060  159.9423 C.3     1  UNL1        0.1254
     11 N         140.9474  143.9628  161.1984 N.am    1  UNL1       -0.2535
     12 C         142.2372  143.2025  161.2886 C.2     1  UNL1        0.2566
     13 O         142.5835  142.4592  162.5448 O.2     1  UNL1       -0.2719
     14 C         140.0037  143.9799  162.3643 C.ar    1  UNL1        0.0645
     15 C         138.7251  143.1978  162.3058 C.ar    1  UNL1        0.0158
     16 C         137.7814  143.2149  163.4716 C.ar    1  UNL1        0.0013
     17 C         138.1164  144.0140  164.6960 C.ar    1  UNL1        0.0009
     18 C         139.3950  144.7962  164.7545 C.ar    1  UNL1        0.0127
     19 C         140.3387  144.7791  163.5887 C.ar    1  UNL1        0.0713
     20 CL        141.6173  145.5612  163.6472 Cl      1  UNL1       -0.0809
     21 C         140.5062  146.9186  155.0082 C.3     1  UNL1        0.0768
     22 C         139.2109  147.6691  154.9137 C.3     1  UNL1        0.0437
     23 C         139.2184  149.1554  154.7110 C.ar    1  UNL1       -0.0208
     24 C         138.5513  150.0521  155.7115 C.ar    1  UNL1       -0.0042
     25 C         138.5587  151.5383  155.5088 C.ar    1  UNL1       -0.0003
     26 C         139.2333  152.1278  154.3057 C.ar    1  UNL1       -0.0000
     27 C         139.9004  151.2311  153.3053 C.ar    1  UNL1       -0.0003
     28 C         139.8930  149.7449  153.5080 C.ar    1  UNL1       -0.0042
@<TRIPOS>BOND
     1     1     2    1
     2     2     3    1
     3     3     4    1
     4     4     5    1
     5     5     6    1
     6     6     7    1
     7     7    21    1
     8    21    22    1
     9    22    23    1
    10    23    24   ar
    11    24    25   ar
    12    25    26   ar
    13    26    27   ar
    14    27    28   ar
    15     7     8    1
    16     8     9    1
    17     4    10    1
    18    10    11    1
    19    11    14    1
    20    14    15   ar
    21    15    16   ar
    22    16    17   ar
    23    17    18   ar
    24    18    19   ar
    25    19    20    1
    26    11    12   am
    27    12    13    2
    28    12     2    1
    29     9     4    1
    30    19    14   ar
    31    28    23   ar
@<TRIPOS>MOLECULE
*****
 28 31 0 0 0
SMALL
GASTEIGER

@<TRIPOS>ATOM
      1 C         137.0937  137.9700  167.3794 C.3     1  UNL1        0.0420
      2 C         138.2062  138.8314  166.8593 C.3     1  UNL1        0.1912
      3 O         138.4834  138.8902  165.3863 O.3     1  UNL1       -0.3500
      4 C         139.5958  139.7516  164.8662 C.3     1  UNL1        0.1145
      5 C         140.7082  140.6130  164.3461 C.3     1  UNL1        0.0463
      6 C         140.9854  140.6717  162.8732 C.3     1  UNL1        0.0746
      7 N         140.1501  139.8691  161.9203 N.3     1  UNL1       -0.2722
      8 C         139.0377  139.0077  162.4403 C.3     1  UNL1        0.0746
      9 C         138.7606  138.9489  163.9133 C.3     1  UNL1        0.0463
     10 C         140.4311  140.5543  165.8191 C.3     1  UNL1        0.1254
     11 N         140.1538  140.4955  167.2922 N.am    1  UNL1       -0.2535
     12 C         139.0414  139.6341  167.8122 C.2     1  UNL1        0.2566
     13 O         138.7642  139.5753  169.2852 O.2     1  UNL1       -0.2719
     14 C         140.9891  141.2982  168.2451 C.ar    1  UNL1        0.0645
     15 C         140.4962  142.6258  168.7394 C.ar    1  UNL1        0.0158
     16 C         141.3314  143.4285  169.6924 C.ar    1  UNL1        0.0013
     17 C         142.6596  142.9036  170.1509 C.ar    1  UNL1        0.0009
     18 C         143.1526  141.5759  169.6566 C.ar    1  UNL1        0.0127
     19 C         142.3173  140.7732  168.7037 C.ar    1  UNL1        0.0713
     20 CL        142.8103  139.4456  168.2093 Cl      1  UNL1       -0.0809
     21 C         140.4273  139.9278  160.4472 C.3     1  UNL1        0.0768
     22 C         139.8027  141.0034  159.6088 C.3     1  UNL1        0.0437
     23 C         140.1741  142.4394  159.8325 C.ar    1  UNL1       -0.0208
     24 C         141.2464  143.0755  158.9986 C.ar    1  UNL1       -0.0042
     25 C         141.6177  144.5114  159.2223 C.ar    1  UNL1       -0.0003
     26 C         140.9167  145.3113  160.2800 C.ar    1  UNL1       -0.0000
     27 C         139.8443  144.6753  161.1140 C.ar    1  UNL1       -0.0003
     28 C         139.4730  143.2394  160.8902 C.ar    1  UNL1       -0.0042
@<TRIPOS>BOND
     1     1     2    1
     2     2     3    1
     3     3     4    1
     4     4     5    1
     5     5     6    1
     6     6     7    1
     7     7    21    1
     8    21    22    1
     9    22    23    1
    10    23    24   ar
    11    24    25   ar
    12    25    26   ar
    13    26    27   ar
    14    27    28   ar
    15     7     8    1
    16     8     9    1
    17     4    10    1
    18    10    11    1
    19    11    14    1
    20    14    15   ar
    21    15    16   ar
    22    16    17   ar
    23    17    18   ar
    24    18    19   ar
    25    19    20    1
    26    11    12   am
    27    12    13    2
    28    12     2    1
    29     9     4    1
    30    19    14   ar
    31    28    23   ar
@<TRIPOS>MOLECULE
*****
 28 31 0 0 0
SMALL
GASTEIGER

@<TRIPOS>ATOM
      1 C         137.3396  138.1114  167.1427 C.3     1  UNL1        0.0420
      2 C         138.3090  139.1686  166.7036 C.3     1  UNL1        0.1912
      3 O         138.4210  139.5269  165.2514 O.3     1  UNL1       -0.3500
      4 C         139.3904  140.5841  164.8123 C.3     1  UNL1        0.1145
      5 C         140.3598  141.6412  164.3733 C.3     1  UNL1        0.0463
      6 C         140.4719  141.9995  162.9211 C.3     1  UNL1        0.0746
      7 N         139.6145  141.3007  161.9079 N.3     1  UNL1       -0.2722
      8 C         138.6451  140.2436  162.3469 C.3     1  UNL1        0.0746
      9 C         138.5331  139.8853  163.7991 C.3     1  UNL1        0.0463
     10 C         140.2478  141.2828  165.8255 C.3     1  UNL1        0.1254
     11 N         140.1357  140.9245  167.2778 N.am    1  UNL1       -0.2535
     12 C         139.1663  139.8674  167.7168 C.2     1  UNL1        0.2566
     13 O         139.0543  139.5090  169.1691 O.2     1  UNL1       -0.2719
     14 C         140.9931  141.6233  168.2911 C.ar    1  UNL1        0.0645
     15 C         140.5103  142.8875  168.9380 C.ar    1  UNL1        0.0158
     16 C         141.3676  143.5863  169.9512 C.ar    1  UNL1        0.0013
     17 C         142.7078  143.0208  170.3176 C.ar    1  UNL1        0.0009
     18 C         143.1906  141.7565  169.6706 C.ar    1  UNL1        0.0127
     19 C         142.3333  141.0577  168.6574 C.ar    1  UNL1        0.0713
     20 CL        142.8161  139.7935  168.0105 Cl      1  UNL1       -0.0809
     21 C         139.7266  141.6591  160.4556 C.3     1  UNL1        0.0768
     22 C         138.5059  142.0744  159.6892 C.3     1  UNL1        0.0437
     23 C         138.3264  141.6317  158.2672 C.ar    1  UNL1       -0.0208
     24 C         138.8947  140.3202  157.8126 C.ar    1  UNL1       -0.0042
     25 C         138.7152  139.8776  156.3907 C.ar    1  UNL1       -0.0003
     26 C         137.9673  140.7466  155.4234 C.ar    1  UNL1       -0.0000
     27 C         137.3990  142.0581  155.8781 C.ar    1  UNL1       -0.0003
     28 C         137.5786  142.5007  157.3000 C.ar    1  UNL1       -0.0042
@<TRIPOS>BOND
     1     1     2    1
     2     2     3    1
     3     3     4    1
     4     4     5    1
     5     5     6    1
     6     6     7    1
     7     7    21    1
     8    21    22    1
     9    22    23    1
    10    23    24   ar
    11    24    25   ar
    12    25    26   ar
    13    26    27   ar
    14    27    28   ar
    15     7     8    1
    16     8     9    1
    17     4    10    1
    18    10    11    1
    19    11    14    1
    20    14    15   ar
    21    15    16   ar
    22    16    17   ar
    23    17    18   ar
    24    18    19   ar
    25    19    20    1
    26    11    12   am
    27    12    13    2
    28    12     2    1
    29     9     4    1
    30    19    14   ar
    31    28    23   ar
@<TRIPOS>MOLECULE
*****
 28 31 0 0 0
SMALL
GASTEIGER

@<TRIPOS>ATOM
      1 C         138.5681  139.1617  164.4907 C.3     1  UNL1        0.0420
      2 C         139.2558  140.4781  164.7009 C.3     1  UNL1        0.1912
      3 O         139.3428  141.4668  163.5763 O.3     1  UNL1       -0.3500
      4 C         140.0305  142.7833  163.7864 C.3     1  UNL1        0.1145
      5 C         140.7182  144.0997  163.9966 C.3     1  UNL1        0.0463
      6 C         140.8051  145.0884  162.8720 C.3     1  UNL1        0.0746
      7 N         140.2044  144.7607  161.5372 N.3     1  UNL1       -0.2722
      8 C         139.5167  143.4444  161.3270 C.3     1  UNL1        0.0746
      9 C         139.4297  142.4556  162.4516 C.3     1  UNL1        0.0463
     10 C         140.6312  143.1109  165.1213 C.3     1  UNL1        0.1254
     11 N         140.5443  142.1221  166.2459 N.am    1  UNL1       -0.2535
     12 C         139.8566  140.8058  166.0357 C.2     1  UNL1        0.2566
     13 O         139.7696  139.8170  167.1604 O.2     1  UNL1       -0.2719
     14 C         141.1450  142.4498  167.5807 C.ar    1  UNL1        0.0645
     15 C         140.3375  143.1901  168.6053 C.ar    1  UNL1        0.0158
     16 C         140.9382  143.5178  169.9401 C.ar    1  UNL1        0.0013
     17 C         142.3465  143.1051  170.2504 C.ar    1  UNL1        0.0009
     18 C         143.1541  142.3647  169.2258 C.ar    1  UNL1        0.0127
     19 C         142.5534  142.0371  167.8910 C.ar    1  UNL1        0.0713
     20 CL        143.3610  141.2967  166.8665 Cl      1  UNL1       -0.0809
     21 C         140.2913  145.7495  160.4125 C.3     1  UNL1        0.0768
     22 C         140.9548  145.3633  159.1239 C.3     1  UNL1        0.0437
     23 C         140.1504  145.2852  157.8601 C.ar    1  UNL1       -0.0208
     24 C         139.5963  143.9681  157.4039 C.ar    1  UNL1       -0.0042
     25 C         138.7921  143.8901  156.1402 C.ar    1  UNL1       -0.0003
     26 C         138.5419  145.1292  155.3327 C.ar    1  UNL1       -0.0000
     27 C         139.0960  146.4463  155.7889 C.ar    1  UNL1       -0.0003
     28 C         139.9003  146.5243  157.0526 C.ar    1  UNL1       -0.0042
@<TRIPOS>BOND
     1     1     2    1
     2     2     3    1
     3     3     4    1
     4     4     5    1
     5     5     6    1
     6     6     7    1
     7     7    21    1
     8    21    22    1
     9    22    23    1
    10    23    24   ar
    11    24    25   ar
    12    25    26   ar
    13    26    27   ar
    14    27    28   ar
    15     7     8    1
    16     8     9    1
    17     4    10    1
    18    10    11    1
    19    11    14    1
    20    14    15   ar
    21    15    16   ar
    22    16    17   ar
    23    17    18   ar
    24    18    19   ar
    25    19    20    1
    26    11    12   am
    27    12    13    2
    28    12     2    1
    29     9     4    1
    30    19    14   ar
    31    28    23   ar
@<TRIPOS>MOLECULE
*****
 28 31 0 0 0
SMALL
GASTEIGER

@<TRIPOS>ATOM
      1 C         143.3421  138.3898  165.8193 C.3     1  UNL1        0.0420
      2 C         142.6371  139.0894  164.6951 C.3     1  UNL1        0.1912
      3 O         142.8482  138.6374  163.2806 O.3     1  UNL1       -0.3500
      4 C         142.1432  139.3370  162.1565 C.3     1  UNL1        0.1145
      5 C         141.4381  140.0366  161.0324 C.3     1  UNL1        0.0463
      6 C         141.6493  139.5846  159.6179 C.3     1  UNL1        0.0746
      7 N         142.5655  138.4330  159.3273 N.3     1  UNL1       -0.2722
      8 C         143.2705  137.7334  160.4514 C.3     1  UNL1        0.0746
      9 C         143.0594  138.1854  161.8659 C.3     1  UNL1        0.0463
     10 C         141.2270  140.4886  162.4470 C.3     1  UNL1        0.1254
     11 N         141.0158  140.9406  163.8617 N.am    1  UNL1       -0.2535
     12 C         141.7209  140.2410  164.9857 C.2     1  UNL1        0.2566
     13 O         141.5097  140.6930  166.4004 O.2     1  UNL1       -0.2719
     14 C         140.0997  142.0922  164.1522 C.ar    1  UNL1        0.0645
     15 C         140.6551  143.4802  164.2744 C.ar    1  UNL1        0.0158
     16 C         139.7389  144.6318  164.5649 C.ar    1  UNL1        0.0013
     17 C         138.2673  144.3954  164.7333 C.ar    1  UNL1        0.0009
     18 C         137.7118  143.0074  164.6112 C.ar    1  UNL1        0.0127
     19 C         138.6280  141.8558  164.3206 C.ar    1  UNL1        0.0713
     20 CL        138.0725  140.4678  164.1985 Cl      1  UNL1       -0.0809
     21 C         142.7766  137.9810  157.9127 C.3     1  UNL1        0.0768
     22 C         141.6911  137.2368  157.1932 C.3     1  UNL1        0.0437
     23 C         142.0294  136.0336  156.3637 C.ar    1  UNL1       -0.0208
     24 C         141.0921  135.5792  155.2843 C.ar    1  UNL1       -0.0042
     25 C         141.4304  134.3760  154.4549 C.ar    1  UNL1       -0.0003
     26 C         142.7059  133.6273  154.7048 C.ar    1  UNL1       -0.0000
     27 C         143.6432  134.0818  155.7841 C.ar    1  UNL1       -0.0003
     28 C         143.3049  135.2849  156.6135 C.ar    1  UNL1       -0.0042
@<TRIPOS>BOND
     1     1     2    1
     2     2     3    1
     3     3     4    1
     4     4     5    1
     5     5     6    1
     6     6     7    1
     7     7    21    1
     8    21    22    1
     9    22    23    1
    10    23    24   ar
    11    24    25   ar
    12    25    26   ar
    13    26    27   ar
    14    27    28   ar
    15     7     8    1
    16     8     9    1
    17     4    10    1
    18    10    11    1
    19    11    14    1
    20    14    15   ar
    21    15    16   ar
    22    16    17   ar
    23    17    18   ar
    24    18    19   ar
    25    19    20    1
    26    11    12   am
    27    12    13    2
    28    12     2    1
    29     9     4    1
    30    19    14   ar
    31    28    23   ar
@<TRIPOS>MOLECULE
*****
 28 31 0 0 0
SMALL
GASTEIGER

@<TRIPOS>ATOM
      1 C         145.1833  139.9996  164.2776 C.3     1  UNL1        0.0420
      2 C         143.7586  140.3787  164.0009 C.3     1  UNL1        0.1912
      3 O         143.4480  141.4382  162.9855 O.3     1  UNL1       -0.3500
      4 C         142.0233  141.8173  162.7088 C.3     1  UNL1        0.1145
      5 C         140.5986  142.1963  162.4321 C.3     1  UNL1        0.0463
      6 C         140.2881  143.2558  161.4167 C.3     1  UNL1        0.0746
      7 N         141.4022  143.9362  160.6781 N.3     1  UNL1       -0.2722
      8 C         142.8269  143.5572  160.9547 C.3     1  UNL1        0.0746
      9 C         143.1374  142.4977  161.9701 C.3     1  UNL1        0.0463
     10 C         140.9091  141.1368  163.4475 C.3     1  UNL1        0.1254
     11 N         141.2197  140.0773  164.4629 N.am    1  UNL1       -0.2535
     12 C         142.6444  139.6982  164.7396 C.2     1  UNL1        0.2566
     13 O         142.9550  138.6387  165.7550 O.2     1  UNL1       -0.2719
     14 C         140.1056  139.3968  165.2016 C.ar    1  UNL1        0.0645
     15 C         139.5582  140.0047  166.4589 C.ar    1  UNL1        0.0158
     16 C         138.4440  139.3242  167.1976 C.ar    1  UNL1        0.0013
     17 C         137.8773  138.0359  166.6790 C.ar    1  UNL1        0.0009
     18 C         138.4247  137.4280  165.4216 C.ar    1  UNL1        0.0127
     19 C         139.5388  138.1084  164.6829 C.ar    1  UNL1        0.0713
     20 CL        140.0862  137.5006  163.4257 Cl      1  UNL1       -0.0809
     21 C         141.0917  144.9958  159.6626 C.3     1  UNL1        0.0768
     22 C         141.7992  144.9974  158.3400 C.3     1  UNL1        0.0437
     23 C         141.1464  145.6190  157.1410 C.ar    1  UNL1       -0.0208
     24 C         141.7530  145.4417  155.7806 C.ar    1  UNL1       -0.0042
     25 C         141.1002  146.0632  154.5817 C.ar    1  UNL1       -0.0003
     26 C         139.8408  146.8619  154.7431 C.ar    1  UNL1       -0.0000
     27 C         139.2342  147.0392  156.1034 C.ar    1  UNL1       -0.0003
     28 C         139.8870  146.4177  157.3024 C.ar    1  UNL1       -0.0042
@<TRIPOS>BOND
     1     1     2    1
     2     2     3    1
     3     3     4    1
     4     4     5    1
     5     5     6    1
     6     6     7    1
     7     7    21    1
     8    21    22    1
     9    22    23    1
    10    23    24   ar
    11    24    25   ar
    12    25    26   ar
    13    26    27   ar
    14    27    28   ar
    15     7     8    1
    16     8     9    1
    17     4    10    1
    18    10    11    1
    19    11    14    1
    20    14    15   ar
    21    15    16   ar
    22    16    17   ar
    23    17    18   ar
    24    18    19   ar
    25    19    20    1
    26    11    12   am
    27    12    13    2
    28    12     2    1
    29     9     4    1
    30    19    14   ar
    31    28    23   ar
