@<TRIPOS>MOLECULE
*****
 31 33 0 0 0
SMALL
GASTEIGER

@<TRIPOS>ATOM
      1 O         143.0244  141.1544  168.3724 O.2     1  UNL1       -0.2701
      2 C         142.0575  140.0630  168.0203 C.2     1  UNL1        0.2474
      3 N         142.3874  139.0936  166.9243 N.am    1  UNL1       -0.3005
      4 H         141.7528  138.3773  166.6932 H       1  UNL1        0.1498
      5 C         140.7607  139.9410  168.7642 C.ar    1  UNL1        0.0727
      6 C         139.4696  139.8331  168.0081 C.ar    1  UNL1        0.0109
      7 C         138.1728  139.7112  168.7520 C.ar    1  UNL1        0.0579
      8 C         138.1670  139.6971  170.2519 C.ar    1  UNL1        0.2249
      9 N         139.4580  139.8050  171.0080 N.ar    1  UNL1       -0.2100
     10 C         140.7549  139.9269  170.2641 C.ar    1  UNL1        0.1065
     11 O         136.8702  139.5751  170.9958 O.3     1  UNL1       -0.4599
     12 C         136.2176  138.2333  171.1504 C.3     1  UNL1        0.2159
     13 C         135.4476  137.9131  172.3972 C.3     1  UNL1        0.1505
     14 C         135.7216  136.6401  173.1418 C.3     1  UNL1        0.4014
     15 F         135.9957  135.3671  173.8863 F       1  UNL1       -0.1699
     16 F         134.3390  136.6816  173.7218 F       1  UNL1       -0.1699
     17 F         137.1043  136.5985  172.5618 F       1  UNL1       -0.1699
     18 C         143.6843  139.2155  166.1803 C.3     1  UNL1        0.0944
     19 C         143.6992  139.7622  164.7836 C.3     1  UNL1        0.0476
     20 C         143.2042  141.1530  164.5173 C.ar    1  UNL1       -0.0204
     21 C         144.0431  142.3346  164.9044 C.ar    1  UNL1       -0.0042
     22 C         143.5481  143.7253  164.6381 C.ar    1  UNL1       -0.0003
     23 C         142.2143  143.9343  163.9845 C.ar    1  UNL1       -0.0000
     24 C         141.3754  142.7527  163.5973 C.ar    1  UNL1       -0.0003
     25 C         141.8703  141.3620  163.8637 C.ar    1  UNL1       -0.0024
     26 C         141.0315  140.1803  163.4765 C.ar    1  UNL1        0.0189
     27 C         139.9438  139.7007  164.3913 C.ar    1  UNL1        0.0031
     28 C         139.1049  138.5190  164.0042 C.ar    1  UNL1        0.0207
     29 C         139.3537  137.8169  162.7021 C.ar    1  UNL1        0.0989
     30 N         140.4414  138.2965  161.7873 N.ar    1  UNL1       -0.2423
     31 C         141.2803  139.4783  162.1745 C.ar    1  UNL1        0.0988
@<TRIPOS>BOND
     1     1     2    2
     2     2     3   am
     3     3    18    1
     4    18    19    1
     5    19    20    1
     6    20    21   ar
     7    21    22   ar
     8    22    23   ar
     9    23    24   ar
    10    24    25   ar
    11    25    26    1
    12    26    27   ar
    13    27    28   ar
    14    28    29   ar
    15    29    30   ar
    16    30    31   ar
    17     2     5    1
    18     5     6   ar
    19     6     7   ar
    20     7     8   ar
    21     8    11    1
    22    11    12    1
    23    12    13    1
    24    13    14    1
    25    14    15    1
    26    14    16    1
    27    14    17    1
    28     8     9   ar
    29     9    10   ar
    30    25    20   ar
    31    31    26   ar
    32    10     5   ar
    33     3     4    1
@<TRIPOS>MOLECULE
*****
 31 33 0 0 0
SMALL
GASTEIGER

@<TRIPOS>ATOM
      1 O         138.5346  138.4186  164.2989 O.2     1  UNL1       -0.2701
      2 C         139.2597  139.1742  165.3728 C.2     1  UNL1        0.2474
      3 N         140.5240  139.9127  165.0472 N.am    1  UNL1       -0.3005
      4 H         140.9999  140.4086  165.7521 H       1  UNL1        0.1498
      5 C         138.7205  139.1912  166.7724 C.ar    1  UNL1        0.0727
      6 C         139.3830  140.0345  167.8213 C.ar    1  UNL1        0.0109
      7 C         138.8438  140.0515  169.2209 C.ar    1  UNL1        0.0579
      8 C         137.6421  139.2252  169.5717 C.ar    1  UNL1        0.2249
      9 N         136.9796  138.3819  168.5230 N.ar    1  UNL1       -0.2100
     10 C         137.5188  138.3649  167.1233 C.ar    1  UNL1        0.1065
     11 O         137.1029  139.2422  170.9713 O.3     1  UNL1       -0.4599
     12 C         136.0643  138.2429  171.3872 C.3     1  UNL1        0.2159
     13 C         136.4468  137.0806  172.2549 C.3     1  UNL1        0.1505
     14 C         135.6530  136.7735  173.4900 C.3     1  UNL1        0.4014
     15 F         134.8592  136.4664  174.7251 F       1  UNL1       -0.1699
     16 F         135.2862  138.2226  173.6147 F       1  UNL1       -0.1699
     17 F         136.0197  135.3244  173.3654 F       1  UNL1       -0.1699
     18 C         141.0632  139.8957  163.6475 C.3     1  UNL1        0.0944
     19 C         140.6864  140.9830  162.6854 C.3     1  UNL1        0.0476
     20 C         139.8216  142.1209  163.1407 C.ar    1  UNL1       -0.0204
     21 C         138.3516  142.1118  162.8424 C.ar    1  UNL1       -0.0042
     22 C         137.4869  143.2497  163.2977 C.ar    1  UNL1       -0.0003
     23 C         138.0921  144.3967  164.0514 C.ar    1  UNL1       -0.0000
     24 C         139.5620  144.4058  164.3498 C.ar    1  UNL1       -0.0003
     25 C         140.4268  143.2680  163.8945 C.ar    1  UNL1       -0.0024
     26 C         141.8968  143.2770  164.1928 C.ar    1  UNL1        0.0189
     27 C         142.8674  143.7805  163.1659 C.ar    1  UNL1        0.0031
     28 C         144.3374  143.7896  163.4642 C.ar    1  UNL1        0.0207
     29 C         144.8369  143.2952  164.7895 C.ar    1  UNL1        0.0989
     30 N         143.8663  142.7918  165.8164 N.ar    1  UNL1       -0.2423
     31 C         142.3962  142.7827  165.5180 C.ar    1  UNL1        0.0988
@<TRIPOS>BOND
     1     1     2    2
     2     2     3   am
     3     3    18    1
     4    18    19    1
     5    19    20    1
     6    20    21   ar
     7    21    22   ar
     8    22    23   ar
     9    23    24   ar
    10    24    25   ar
    11    25    26    1
    12    26    27   ar
    13    27    28   ar
    14    28    29   ar
    15    29    30   ar
    16    30    31   ar
    17     2     5    1
    18     5     6   ar
    19     6     7   ar
    20     7     8   ar
    21     8    11    1
    22    11    12    1
    23    12    13    1
    24    13    14    1
    25    14    15    1
    26    14    16    1
    27    14    17    1
    28     8     9   ar
    29     9    10   ar
    30    25    20   ar
    31    31    26   ar
    32    10     5   ar
    33     3     4    1
@<TRIPOS>MOLECULE
*****
 31 33 0 0 0
SMALL
GASTEIGER

@<TRIPOS>ATOM
      1 O         137.9810  138.4715  162.3633 O.2     1  UNL1       -0.2701
      2 C         139.4289  138.1525  162.5909 C.2     1  UNL1        0.2474
      3 N         139.9166  137.8238  163.9707 N.am    1  UNL1       -0.3005
      4 H         140.8669  137.6144  164.1201 H       1  UNL1        0.1498
      5 C         140.3891  138.1622  161.4386 C.ar    1  UNL1        0.0727
      6 C         141.8352  137.8338  161.6646 C.ar    1  UNL1        0.0109
      7 C         142.7955  137.8435  160.5123 C.ar    1  UNL1        0.0579
      8 C         142.3097  138.1816  159.1340 C.ar    1  UNL1        0.2249
      9 N         140.8637  138.5100  158.9080 N.ar    1  UNL1       -0.2100
     10 C         139.9034  138.5003  160.0603 C.ar    1  UNL1        0.1065
     11 O         143.2699  138.1913  157.9817 O.3     1  UNL1       -0.4599
     12 C         142.9542  137.4180  156.7357 C.3     1  UNL1        0.2159
     13 C         142.4704  136.0017  156.8344 C.3     1  UNL1        0.1505
     14 C         143.4427  134.8664  156.7082 C.3     1  UNL1        0.4014
     15 F         144.4150  133.7313  156.5819 F       1  UNL1       -0.1699
     16 F         143.3762  134.6446  158.1901 F       1  UNL1       -0.1699
     17 F         143.5092  135.0883  155.2262 F       1  UNL1       -0.1699
     18 C         138.9563  137.8141  165.1231 C.3     1  UNL1        0.0944
     19 C         138.2886  139.0863  165.5537 C.3     1  UNL1        0.0476
     20 C         139.0589  140.1115  166.3321 C.ar    1  UNL1       -0.0204
     21 C         139.4059  139.8570  167.7690 C.ar    1  UNL1       -0.0042
     22 C         140.1762  140.8821  168.5473 C.ar    1  UNL1       -0.0003
     23 C         140.5994  142.1616  167.8887 C.ar    1  UNL1       -0.0000
     24 C         140.2524  142.4160  166.4518 C.ar    1  UNL1       -0.0003
     25 C         139.4821  141.3910  165.6735 C.ar    1  UNL1       -0.0024
     26 C         139.1350  141.6453  164.2365 C.ar    1  UNL1        0.0189
     27 C         140.1985  141.5618  163.1820 C.ar    1  UNL1        0.0031
     28 C         139.8515  141.8162  161.7450 C.ar    1  UNL1        0.0207
     29 C         138.4409  142.1541  161.3626 C.ar    1  UNL1        0.0989
     30 N         137.3774  142.2376  162.4171 N.ar    1  UNL1       -0.2423
     31 C         137.7245  141.9832  163.8541 C.ar    1  UNL1        0.0988
@<TRIPOS>BOND
     1     1     2    2
     2     2     3   am
     3     3    18    1
     4    18    19    1
     5    19    20    1
     6    20    21   ar
     7    21    22   ar
     8    22    23   ar
     9    23    24   ar
    10    24    25   ar
    11    25    26    1
    12    26    27   ar
    13    27    28   ar
    14    28    29   ar
    15    29    30   ar
    16    30    31   ar
    17     2     5    1
    18     5     6   ar
    19     6     7   ar
    20     7     8   ar
    21     8    11    1
    22    11    12    1
    23    12    13    1
    24    13    14    1
    25    14    15    1
    26    14    16    1
    27    14    17    1
    28     8     9   ar
    29     9    10   ar
    30    25    20   ar
    31    31    26   ar
    32    10     5   ar
    33     3     4    1
@<TRIPOS>MOLECULE
*****
 31 33 0 0 0
SMALL
GASTEIGER

@<TRIPOS>ATOM
      1 O         141.9257  137.7586  164.9690 O.2     1  UNL1       -0.2701
      2 C         141.0237  137.8459  163.7738 C.2     1  UNL1        0.2474
      3 N         139.5380  137.7315  163.9454 N.am    1  UNL1       -0.3005
      4 H         138.9459  137.7888  163.1609 H       1  UNL1        0.1498
      5 C         141.6073  138.0477  162.4068 C.ar    1  UNL1        0.0727
      6 C         140.7055  138.3130  161.2379 C.ar    1  UNL1        0.0109
      7 C         141.2891  138.5148  159.8709 C.ar    1  UNL1        0.0579
      8 C         142.7746  138.4514  159.6729 C.ar    1  UNL1        0.2249
      9 N         143.6765  138.1861  160.8417 N.ar    1  UNL1       -0.2100
     10 C         143.0928  137.9843  162.2087 C.ar    1  UNL1        0.1065
     11 O         143.3583  138.6532  158.3059 O.3     1  UNL1       -0.4599
     12 C         142.8022  137.8995  157.1342 C.3     1  UNL1        0.2159
     13 C         142.9990  136.4158  157.0350 C.3     1  UNL1        0.1505
     14 C         143.0888  135.7594  155.6892 C.3     1  UNL1        0.4014
     15 F         143.1787  135.1031  154.3434 F       1  UNL1       -0.1699
     16 F         141.6418  135.3750  155.7801 F       1  UNL1       -0.1699
     17 F         144.5358  136.1439  155.5983 F       1  UNL1       -0.1699
     18 C         138.9542  137.5296  165.3124 C.3     1  UNL1        0.0944
     19 C         138.3656  138.6920  166.0557 C.3     1  UNL1        0.0476
     20 C         138.6270  140.0925  165.5862 C.ar    1  UNL1       -0.0204
     21 C         137.9218  140.6206  164.3723 C.ar    1  UNL1       -0.0042
     22 C         138.1833  142.0210  163.9030 C.ar    1  UNL1       -0.0003
     23 C         139.1501  142.8934  164.6475 C.ar    1  UNL1       -0.0000
     24 C         139.8553  142.3653  165.8615 C.ar    1  UNL1       -0.0003
     25 C         139.5938  140.9648  166.3308 C.ar    1  UNL1       -0.0024
     26 C         140.2991  140.4366  167.5448 C.ar    1  UNL1        0.0189
     27 C         141.7459  140.0494  167.4625 C.ar    1  UNL1        0.0031
     28 C         142.4512  139.5213  168.6764 C.ar    1  UNL1        0.0207
     29 C         141.7096  139.3803  169.9727 C.ar    1  UNL1        0.0989
     30 N         140.2628  139.7675  170.0550 N.ar    1  UNL1       -0.2423
     31 C         139.5575  140.2957  168.8410 C.ar    1  UNL1        0.0988
@<TRIPOS>BOND
     1     1     2    2
     2     2     3   am
     3     3    18    1
     4    18    19    1
     5    19    20    1
     6    20    21   ar
     7    21    22   ar
     8    22    23   ar
     9    23    24   ar
    10    24    25   ar
    11    25    26    1
    12    26    27   ar
    13    27    28   ar
    14    28    29   ar
    15    29    30   ar
    16    30    31   ar
    17     2     5    1
    18     5     6   ar
    19     6     7   ar
    20     7     8   ar
    21     8    11    1
    22    11    12    1
    23    12    13    1
    24    13    14    1
    25    14    15    1
    26    14    16    1
    27    14    17    1
    28     8     9   ar
    29     9    10   ar
    30    25    20   ar
    31    31    26   ar
    32    10     5   ar
    33     3     4    1
@<TRIPOS>MOLECULE
*****
 31 33 0 0 0
SMALL
GASTEIGER

@<TRIPOS>ATOM
      1 O         141.5435  139.4540  166.2583 O.2     1  UNL1       -0.2701
      2 C         140.9509  140.1462  167.4498 C.2     1  UNL1        0.2474
      3 N         139.5043  139.9449  167.7914 N.am    1  UNL1       -0.3005
      4 H         139.1154  140.3993  168.5734 H       1  UNL1        0.1498
      5 C         141.8049  141.0398  168.2996 C.ar    1  UNL1        0.0727
      6 C         141.5255  141.1698  169.7676 C.ar    1  UNL1        0.0109
      7 C         142.3794  142.0633  170.6174 C.ar    1  UNL1        0.0579
      8 C         143.5129  142.8270  169.9992 C.ar    1  UNL1        0.2249
      9 N         143.7923  142.6971  168.5313 N.ar    1  UNL1       -0.2100
     10 C         142.9383  141.8035  167.6814 C.ar    1  UNL1        0.1065
     11 O         144.3669  143.7205  170.8490 O.3     1  UNL1       -0.4599
     12 C         145.7791  144.0185  170.4404 C.3     1  UNL1        0.2159
     13 C         146.8118  144.3292  171.4829 C.3     1  UNL1        0.1505
     14 C         146.8405  145.6820  172.1304 C.3     1  UNL1        0.4014
     15 F         146.8692  147.0348  172.7779 F       1  UNL1       -0.1699
     16 F         146.1578  146.2704  170.9314 F       1  UNL1       -0.1699
     17 F         147.5232  145.0936  173.3294 F       1  UNL1       -0.1699
     18 C         138.6502  139.0513  166.9416 C.3     1  UNL1        0.0944
     19 C         138.0404  139.5782  165.6766 C.3     1  UNL1        0.0476
     20 C         138.7348  139.3657  164.3640 C.ar    1  UNL1       -0.0204
     21 C         138.9343  137.9753  163.8376 C.ar    1  UNL1       -0.0042
     22 C         139.6287  137.7628  162.5251 C.ar    1  UNL1       -0.0003
     23 C         140.1236  138.9406  161.7390 C.ar    1  UNL1       -0.0000
     24 C         139.9241  140.3310  162.2655 C.ar    1  UNL1       -0.0003
     25 C         139.2297  140.5435  163.5780 C.ar    1  UNL1       -0.0024
     26 C         139.0302  141.9338  164.1044 C.ar    1  UNL1        0.0189
     27 C         140.0133  142.5160  165.0763 C.ar    1  UNL1        0.0031
     28 C         139.8139  143.9063  165.6028 C.ar    1  UNL1        0.0207
     29 C         138.6312  144.7145  165.1574 C.ar    1  UNL1        0.0989
     30 N         137.6481  144.1323  164.1856 N.ar    1  UNL1       -0.2423
     31 C         137.8476  142.7419  163.6591 C.ar    1  UNL1        0.0988
@<TRIPOS>BOND
     1     1     2    2
     2     2     3   am
     3     3    18    1
     4    18    19    1
     5    19    20    1
     6    20    21   ar
     7    21    22   ar
     8    22    23   ar
     9    23    24   ar
    10    24    25   ar
    11    25    26    1
    12    26    27   ar
    13    27    28   ar
    14    28    29   ar
    15    29    30   ar
    16    30    31   ar
    17     2     5    1
    18     5     6   ar
    19     6     7   ar
    20     7     8   ar
    21     8    11    1
    22    11    12    1
    23    12    13    1
    24    13    14    1
    25    14    15    1
    26    14    16    1
    27    14    17    1
    28     8     9   ar
    29     9    10   ar
    30    25    20   ar
    31    31    26   ar
    32    10     5   ar
    33     3     4    1
@<TRIPOS>MOLECULE
*****
 31 33 0 0 0
SMALL
GASTEIGER

@<TRIPOS>ATOM
      1 O         143.2234  139.1321  163.6397 O.2     1  UNL1       -0.2701
      2 C         142.8465  140.4214  164.3073 C.2     1  UNL1        0.2474
      3 N         142.4400  141.6040  163.4789 N.am    1  UNL1       -0.3005
      4 H         142.1926  142.4502  163.9170 H       1  UNL1        0.1498
      5 C         142.8760  140.5282  165.8031 C.ar    1  UNL1        0.0727
      6 C         142.9795  141.8742  166.4571 C.ar    1  UNL1        0.0109
      7 C         143.0090  141.9809  167.9530 C.ar    1  UNL1        0.0579
      8 C         142.9350  140.7417  168.7950 C.ar    1  UNL1        0.2249
      9 N         142.8315  139.3957  168.1410 N.ar    1  UNL1       -0.2100
     10 C         142.8019  139.2889  166.6451 C.ar    1  UNL1        0.1065
     11 O         142.9645  140.8484  170.2908 O.3     1  UNL1       -0.4599
     12 C         141.6808  140.8755  171.0663 C.3     1  UNL1        0.2159
     13 C         140.9837  142.1797  171.3175 C.3     1  UNL1        0.1505
     14 C         140.4981  143.0051  170.1629 C.3     1  UNL1        0.4014
     15 F         140.0126  143.8306  169.0084 F       1  UNL1       -0.1699
     16 F         139.2620  142.1597  170.0783 F       1  UNL1       -0.1699
     17 F         141.7342  143.8506  170.2476 F       1  UNL1       -0.1699
     18 C         142.4105  141.4973  161.9829 C.3     1  UNL1        0.0944
     19 C         141.0988  141.5140  161.2556 C.3     1  UNL1        0.0476
     20 C         140.1012  140.4169  161.4826 C.ar    1  UNL1       -0.0204
     21 C         140.2507  139.1073  160.7667 C.ar    1  UNL1       -0.0042
     22 C         139.2533  138.0104  160.9938 C.ar    1  UNL1       -0.0003
     23 C         138.1063  138.2230  161.9367 C.ar    1  UNL1       -0.0000
     24 C         137.9568  139.5325  162.6527 C.ar    1  UNL1       -0.0003
     25 C         138.9542  140.6295  162.4256 C.ar    1  UNL1       -0.0024
     26 C         138.8048  141.9392  163.1415 C.ar    1  UNL1        0.0189
     27 C         138.1340  143.0945  162.4594 C.ar    1  UNL1        0.0031
     28 C         137.9845  144.4041  163.1753 C.ar    1  UNL1        0.0207
     29 C         138.5058  144.5585  164.5733 C.ar    1  UNL1        0.0989
     30 N         139.1766  143.4032  165.2555 N.ar    1  UNL1       -0.2423
     31 C         139.3260  142.0935  164.5395 C.ar    1  UNL1        0.0988
@<TRIPOS>BOND
     1     1     2    2
     2     2     3   am
     3     3    18    1
     4    18    19    1
     5    19    20    1
     6    20    21   ar
     7    21    22   ar
     8    22    23   ar
     9    23    24   ar
    10    24    25   ar
    11    25    26    1
    12    26    27   ar
    13    27    28   ar
    14    28    29   ar
    15    29    30   ar
    16    30    31   ar
    17     2     5    1
    18     5     6   ar
    19     6     7   ar
    20     7     8   ar
    21     8    11    1
    22    11    12    1
    23    12    13    1
    24    13    14    1
    25    14    15    1
    26    14    16    1
    27    14    17    1
    28     8     9   ar
    29     9    10   ar
    30    25    20   ar
    31    31    26   ar
    32    10     5   ar
    33     3     4    1
@<TRIPOS>MOLECULE
*****
 31 33 0 0 0
SMALL
GASTEIGER

@<TRIPOS>ATOM
      1 O         141.4807  145.5351  163.1565 O.2     1  UNL1       -0.2701
      2 C         140.4950  144.5400  162.6196 C.2     1  UNL1        0.2474
      3 N         139.7721  143.6194  163.5575 N.am    1  UNL1       -0.3005
      4 H         139.1251  142.9664  163.2051 H       1  UNL1        0.1498
      5 C         140.2322  144.4656  161.1447 C.ar    1  UNL1        0.0727
      6 C         140.8561  145.4687  160.2201 C.ar    1  UNL1        0.0109
      7 C         140.5933  145.3943  158.7452 C.ar    1  UNL1        0.0579
      8 C         139.7066  144.3169  158.1948 C.ar    1  UNL1        0.2249
      9 N         139.0827  143.3138  159.1193 N.ar    1  UNL1       -0.2100
     10 C         139.3455  143.3882  160.5943 C.ar    1  UNL1        0.1065
     11 O         139.4438  144.2425  156.7199 O.3     1  UNL1       -0.4599
     12 C         139.7808  145.4083  155.8383 C.3     1  UNL1        0.2159
     13 C         138.7132  146.3875  155.4490 C.3     1  UNL1        0.1505
     14 C         138.9953  147.8602  155.4898 C.3     1  UNL1        0.4014
     15 F         139.2773  149.3329  155.5307 F       1  UNL1       -0.1699
     16 F         139.2773  147.8471  154.0167 F       1  UNL1       -0.1699
     17 F         138.7132  147.8733  156.9630 F       1  UNL1       -0.1699
     18 C         140.0349  143.6938  165.0325 C.3     1  UNL1        0.0944
     19 C         140.7142  142.5538  165.7317 C.3     1  UNL1        0.0476
     20 C         139.9057  141.3974  166.2408 C.ar    1  UNL1       -0.0204
     21 C         138.9628  140.6791  165.3216 C.ar    1  UNL1       -0.0042
     22 C         138.1543  139.5228  165.8306 C.ar    1  UNL1       -0.0003
     23 C         138.2888  139.0847  167.2589 C.ar    1  UNL1       -0.0000
     24 C         139.2316  139.8030  168.1781 C.ar    1  UNL1       -0.0003
     25 C         140.0401  140.9593  167.6691 C.ar    1  UNL1       -0.0024
     26 C         140.9830  141.6777  168.5883 C.ar    1  UNL1        0.0189
     27 C         142.4181  141.2497  168.6746 C.ar    1  UNL1        0.0031
     28 C         143.3610  141.9679  169.5937 C.ar    1  UNL1        0.0207
     29 C         142.8689  143.1143  170.4267 C.ar    1  UNL1        0.0989
     30 N         141.4338  143.5423  170.3404 N.ar    1  UNL1       -0.2423
     31 C         140.4909  142.8240  169.4212 C.ar    1  UNL1        0.0988
@<TRIPOS>BOND
     1     1     2    2
     2     2     3   am
     3     3    18    1
     4    18    19    1
     5    19    20    1
     6    20    21   ar
     7    21    22   ar
     8    22    23   ar
     9    23    24   ar
    10    24    25   ar
    11    25    26    1
    12    26    27   ar
    13    27    28   ar
    14    28    29   ar
    15    29    30   ar
    16    30    31   ar
    17     2     5    1
    18     5     6   ar
    19     6     7   ar
    20     7     8   ar
    21     8    11    1
    22    11    12    1
    23    12    13    1
    24    13    14    1
    25    14    15    1
    26    14    16    1
    27    14    17    1
    28     8     9   ar
    29     9    10   ar
    30    25    20   ar
    31    31    26   ar
    32    10     5   ar
    33     3     4    1
@<TRIPOS>MOLECULE
*****
 31 33 0 0 0
SMALL
GASTEIGER

@<TRIPOS>ATOM
      1 O         138.2768  141.4253  162.7206 O.2     1  UNL1       -0.2701
      2 C         139.4001  140.7150  163.4160 C.2     1  UNL1        0.2474
      3 N         140.6118  140.2890  162.6413 N.am    1  UNL1       -0.3005
      4 H         141.3491  139.8228  163.0978 H       1  UNL1        0.1498
      5 C         139.3117  140.4306  164.8861 C.ar    1  UNL1        0.0727
      6 C         140.0992  141.2576  165.8587 C.ar    1  UNL1        0.0109
      7 C         140.0108  140.9733  167.3288 C.ar    1  UNL1        0.0579
      8 C         139.1348  139.8619  167.8264 C.ar    1  UNL1        0.2249
      9 N         138.3473  139.0349  166.8539 N.ar    1  UNL1       -0.2100
     10 C         138.4357  139.3193  165.3837 C.ar    1  UNL1        0.1065
     11 O         139.0464  139.5776  169.2965 O.3     1  UNL1       -0.4599
     12 C         140.0570  140.1654  170.2363 C.3     1  UNL1        0.2159
     13 C         141.4613  139.6385  170.2528 C.3     1  UNL1        0.1505
     14 C         142.6137  140.5672  170.0086 C.3     1  UNL1        0.4014
     15 F         143.7661  141.4959  169.7646 F       1  UNL1       -0.1699
     16 F         142.9450  139.8248  168.7481 F       1  UNL1       -0.1699
     17 F         142.2825  141.3096  171.2692 F       1  UNL1       -0.1699
     18 C         140.7003  140.5733  161.1711 C.3     1  UNL1        0.0944
     19 C         141.4375  141.7857  160.6848 C.3     1  UNL1        0.0476
     20 C         141.1825  143.1222  161.3164 C.ar    1  UNL1       -0.0204
     21 C         140.0244  143.9589  160.8596 C.ar    1  UNL1       -0.0042
     22 C         139.7694  145.2952  161.4913 C.ar    1  UNL1       -0.0003
     23 C         140.6724  145.7949  162.5798 C.ar    1  UNL1       -0.0000
     24 C         141.8305  144.9582  163.0366 C.ar    1  UNL1       -0.0003
     25 C         142.0855  143.6218  162.4049 C.ar    1  UNL1       -0.0024
     26 C         143.2437  142.7851  162.8617 C.ar    1  UNL1        0.0189
     27 C         143.1690  142.0498  164.1671 C.ar    1  UNL1        0.0031
     28 C         144.3270  141.2131  164.6239 C.ar    1  UNL1        0.0207
     29 C         145.5599  141.1115  163.7754 C.ar    1  UNL1        0.0989
     30 N         145.6346  141.8468  162.4701 N.ar    1  UNL1       -0.2423
     31 C         144.4764  142.6835  162.0133 C.ar    1  UNL1        0.0988
@<TRIPOS>BOND
     1     1     2    2
     2     2     3   am
     3     3    18    1
     4    18    19    1
     5    19    20    1
     6    20    21   ar
     7    21    22   ar
     8    22    23   ar
     9    23    24   ar
    10    24    25   ar
    11    25    26    1
    12    26    27   ar
    13    27    28   ar
    14    28    29   ar
    15    29    30   ar
    16    30    31   ar
    17     2     5    1
    18     5     6   ar
    19     6     7   ar
    20     7     8   ar
    21     8    11    1
    22    11    12    1
    23    12    13    1
    24    13    14    1
    25    14    15    1
    26    14    16    1
    27    14    17    1
    28     8     9   ar
    29     9    10   ar
    30    25    20   ar
    31    31    26   ar
    32    10     5   ar
    33     3     4    1
@<TRIPOS>MOLECULE
*****
 31 33 0 0 0
SMALL
GASTEIGER

@<TRIPOS>ATOM
      1 O         142.8271  139.0861  163.5349 O.2     1  UNL1       -0.2701
      2 C         142.6392  140.3693  164.2886 C.2     1  UNL1        0.2474
      3 N         142.3182  141.6338  163.5483 N.am    1  UNL1       -0.3005
      4 H         142.1948  142.4760  164.0430 H       1  UNL1        0.1498
      5 C         142.7723  140.3881  165.7825 C.ar    1  UNL1        0.0727
      6 C         142.8731  141.6960  166.5102 C.ar    1  UNL1        0.0109
      7 C         143.0062  141.7147  168.0041 C.ar    1  UNL1        0.0579
      8 C         143.0385  140.4257  168.7705 C.ar    1  UNL1        0.2249
      9 N         142.9378  139.1179  168.0429 N.ar    1  UNL1       -0.2100
     10 C         142.8046  139.0990  166.5489 C.ar    1  UNL1        0.1065
     11 O         143.1716  140.4445  170.2644 O.3     1  UNL1       -0.4599
     12 C         141.9458  140.3906  171.1274 C.3     1  UNL1        0.2159
     13 C         140.5938  140.6351  170.5258 C.3     1  UNL1        0.1505
     14 C         140.1206  142.0389  170.2898 C.3     1  UNL1        0.4014
     15 F         139.6474  143.4426  170.0539 F       1  UNL1       -0.1699
     16 F         139.7624  141.6809  168.8779 F       1  UNL1       -0.1699
     17 F         140.4788  142.3969  171.7017 F       1  UNL1       -0.1699
     18 C         142.1850  141.6150  162.0543 C.3     1  UNL1        0.0944
     19 C         140.8428  141.8241  161.4183 C.3     1  UNL1        0.0476
     20 C         139.8005  142.6445  162.1187 C.ar    1  UNL1       -0.0204
     21 C         139.8316  144.1408  162.0186 C.ar    1  UNL1       -0.0042
     22 C         138.7893  144.9612  162.7190 C.ar    1  UNL1       -0.0003
     23 C         137.7159  144.2852  163.5196 C.ar    1  UNL1       -0.0000
     24 C         137.6848  142.7889  163.6198 C.ar    1  UNL1       -0.0003
     25 C         138.7271  141.9686  162.9194 C.ar    1  UNL1       -0.0024
     26 C         138.6961  140.4722  163.0195 C.ar    1  UNL1        0.0189
     27 C         139.2633  139.7895  164.2287 C.ar    1  UNL1        0.0031
     28 C         139.2323  138.2932  164.3289 C.ar    1  UNL1        0.0207
     29 C         138.6340  137.4795  163.2199 C.ar    1  UNL1        0.0989
     30 N         138.0667  138.1621  162.0107 N.ar    1  UNL1       -0.2423
     31 C         138.0978  139.6585  161.9105 C.ar    1  UNL1        0.0988
@<TRIPOS>BOND
     1     1     2    2
     2     2     3   am
     3     3    18    1
     4    18    19    1
     5    19    20    1
     6    20    21   ar
     7    21    22   ar
     8    22    23   ar
     9    23    24   ar
    10    24    25   ar
    11    25    26    1
    12    26    27   ar
    13    27    28   ar
    14    28    29   ar
    15    29    30   ar
    16    30    31   ar
    17     2     5    1
    18     5     6   ar
    19     6     7   ar
    20     7     8   ar
    21     8    11    1
    22    11    12    1
    23    12    13    1
    24    13    14    1
    25    14    15    1
    26    14    16    1
    27    14    17    1
    28     8     9   ar
    29     9    10   ar
    30    25    20   ar
    31    31    26   ar
    32    10     5   ar
    33     3     4    1
