@<TRIPOS>MOLECULE
*****
 32 36 0 0 0
SMALL
GASTEIGER

@<TRIPOS>ATOM
      1 C         140.6088  137.6431  163.9934 C.3     1  UNL1        0.0545
      2 C         139.1778  137.5593  164.4353 C.3     1  UNL1        0.0162
      3 C         139.0325  138.3662  165.6914 C.3     1  UNL1        0.0095
      4 C         138.0584  138.8131  166.7408 C.3     1  UNL1        0.0005
      5 C         138.7975  139.6718  167.7238 C.3     1  UNL1        0.0005
      6 C         140.2285  139.7556  167.2819 C.3     1  UNL1        0.0087
      7 C         140.3738  138.9487  166.0258 C.3     1  UNL1        0.0704
      8 C         141.3479  138.5018  164.9764 C.3     1  UNL1        0.0243
      9 C         141.7150  139.5312  166.3603 C.2     1  UNL1        0.2250
     10 O         142.6562  138.7812  167.2556 O.2     1  UNL1       -0.2749
     11 N         142.1150  140.8637  165.7994 N.am    1  UNL1       -0.2751
     12 C         143.4562  141.4461  166.1338 C.3     1  UNL1        0.0984
     13 C         143.8561  142.7785  165.5729 C.3     1  UNL1        0.0476
     14 C         142.9148  143.5285  164.6776 C.ar    1  UNL1       -0.0228
     15 C         143.3148  144.8610  164.1167 C.ar    1  UNL1       -0.0038
     16 C         142.3736  145.6110  163.2214 C.ar    1  UNL1        0.0099
     17 C         141.0323  145.0285  162.8870 C.ar    1  UNL1        0.0682
     18 C         140.6324  143.6960  163.4479 C.ar    1  UNL1        0.0074
     19 C         141.5736  142.9461  164.3432 C.ar    1  UNL1       -0.0056
     20 C         141.1737  141.6136  164.9041 C.3     1  UNL1        0.1198
     21 C         140.0910  145.7784  161.9917 C.1     1  UNL1        0.1004
     22 N         139.1498  146.5284  161.0964 N.1     1  UNL1       -0.1908
     23 N         141.1973  136.9839  162.7813 N.3     1  UNL1       -0.2975
     24 H         141.8833  136.3080  163.1176 H       1  UNL1        0.1232
     25 C         141.0857  138.4205  160.6195 C.3     1  UNL1        0.1591
     26 C         141.7709  139.2490  159.5735 C.3     1  UNL1        0.1729
     27 O         143.2529  139.4693  159.6433 O.3     1  UNL1       -0.3511
     28 C         144.0499  138.8612  160.7592 C.3     1  UNL1        0.1437
     29 C         143.3647  138.0327  161.8052 C.3     1  UNL1        0.0503
     30 C         141.8825  137.8123  161.7353 C.3     1  UNL1        0.0865
     31 C         138.6652  139.2295  161.1065 C.3     1  UNL1        0.1742
     32 O         139.6036  138.2002  160.5497 O.3     1  UNL1       -0.3496
@<TRIPOS>BOND
     1    31    32    1
     2    32    25    1
     3    25    26    1
     4    26    27    1
     5    27    28    1
     6    28    29    1
     7    29    30    1
     8    30    23    1
     9     1    23    1
    10     1     2    1
    11     3     2    1
    12     3     4    1
    13     4     5    1
    14     5     6    1
    15     6     7    1
    16     7     9    1
    17     9    10    2
    18     9    11   am
    19    11    12    1
    20    12    13    1
    21    13    14    1
    22    14    15   ar
    23    15    16   ar
    24    16    17   ar
    25    17    21    1
    26    21    22    3
    27    17    18   ar
    28    18    19   ar
    29    19    20    1
    30     7     8    1
    31    30    25    1
    32     8     1    1
    33     7     3    1
    34    20    11    1
    35    19    14   ar
    36    23    24    1
@<TRIPOS>MOLECULE
*****
 32 36 0 0 0
SMALL
GASTEIGER

@<TRIPOS>ATOM
      1 C         141.1353  142.0855  161.9970 C.3     1  UNL1        0.0545
      2 C         140.8461  143.5425  161.7881 C.3     1  UNL1        0.0162
      3 C         139.5451  143.8584  162.4646 C.3     1  UNL1        0.0095
      4 C         138.5623  144.9541  162.7535 C.3     1  UNL1        0.0005
      5 C         137.4400  144.3696  163.5591 C.3     1  UNL1        0.0005
      6 C         137.7292  142.9127  163.7680 C.3     1  UNL1        0.0087
      7 C         139.0302  142.5967  163.0915 C.3     1  UNL1        0.0704
      8 C         140.0131  141.5010  162.8026 C.3     1  UNL1        0.0243
      9 C         138.5154  141.3350  163.7185 C.2     1  UNL1        0.2250
     10 O         137.6107  140.4260  162.9406 O.2     1  UNL1       -0.2749
     11 N         138.9053  140.9824  165.1234 N.am    1  UNL1       -0.2751
     12 C         138.3905  139.7207  165.7503 C.3     1  UNL1        0.0984
     13 C         138.7804  139.3681  167.1552 C.3     1  UNL1        0.0476
     14 C         139.6851  140.2771  167.9330 C.ar    1  UNL1       -0.0228
     15 C         140.0750  139.9245  169.3380 C.ar    1  UNL1       -0.0038
     16 C         140.9797  140.8335  170.1158 C.ar    1  UNL1        0.0099
     17 C         141.4945  142.0952  169.4888 C.ar    1  UNL1        0.0682
     18 C         141.1046  142.4479  168.0840 C.ar    1  UNL1        0.0074
     19 C         140.1999  141.5388  167.3061 C.ar    1  UNL1       -0.0056
     20 C         139.8100  141.8914  165.9013 C.3     1  UNL1        0.1198
     21 C         142.3993  143.0043  170.2667 C.1     1  UNL1        0.1004
     22 N         143.3040  143.9134  171.0446 N.1     1  UNL1       -0.1908
     23 N         142.3360  141.3433  161.4895 N.3     1  UNL1       -0.2975
     24 H         141.9929  140.4772  161.0742 H       1  UNL1        0.1232
     25 C         144.5650  141.9188  162.6939 C.3     1  UNL1        0.1591
     26 C         145.6667  141.5395  163.6385 C.3     1  UNL1        0.1729
     27 O         145.6412  140.2052  164.3233 O.3     1  UNL1       -0.3511
     28 C         144.5140  139.2502  164.0635 C.3     1  UNL1        0.1437
     29 C         143.4122  139.6296  163.1189 C.3     1  UNL1        0.0503
     30 C         143.4378  140.9639  162.4341 C.3     1  UNL1        0.0865
     31 C         144.1665  144.4856  162.7518 C.3     1  UNL1        0.1742
     32 O         144.5904  143.2531  162.0091 O.3     1  UNL1       -0.3496
@<TRIPOS>BOND
     1    31    32    1
     2    32    25    1
     3    25    26    1
     4    26    27    1
     5    27    28    1
     6    28    29    1
     7    29    30    1
     8    30    23    1
     9     1    23    1
    10     1     2    1
    11     3     2    1
    12     3     4    1
    13     4     5    1
    14     5     6    1
    15     6     7    1
    16     7     9    1
    17     9    10    2
    18     9    11   am
    19    11    12    1
    20    12    13    1
    21    13    14    1
    22    14    15   ar
    23    15    16   ar
    24    16    17   ar
    25    17    21    1
    26    21    22    3
    27    17    18   ar
    28    18    19   ar
    29    19    20    1
    30     7     8    1
    31    30    25    1
    32     8     1    1
    33     7     3    1
    34    20    11    1
    35    19    14   ar
    36    23    24    1
@<TRIPOS>MOLECULE
*****
 32 36 0 0 0
SMALL
GASTEIGER

@<TRIPOS>ATOM
      1 C         138.3174  142.0570  162.6092 C.3     1  UNL1        0.0545
      2 C         137.7825  143.4232  162.2975 C.3     1  UNL1        0.0162
      3 C         138.9438  144.3695  162.2216 C.3     1  UNL1        0.0095
      4 C         139.3310  145.7987  161.9820 C.3     1  UNL1        0.0005
      5 C         140.8230  145.9007  162.0987 C.3     1  UNL1        0.0005
      6 C         141.3579  144.5344  162.4104 C.3     1  UNL1        0.0087
      7 C         140.1966  143.5881  162.4863 C.3     1  UNL1        0.0704
      8 C         139.8094  142.1589  162.7259 C.3     1  UNL1        0.0243
      9 C         141.4493  142.8067  162.7510 C.2     1  UNL1        0.2250
     10 O         142.3294  142.3913  161.6097 O.2     1  UNL1       -0.2749
     11 N         141.8219  142.4407  164.1572 N.am    1  UNL1       -0.2751
     12 C         143.0746  141.6593  164.4220 C.3     1  UNL1        0.0984
     13 C         143.4471  141.2933  165.8281 C.3     1  UNL1        0.0476
     14 C         142.5670  141.7087  166.9695 C.ar    1  UNL1       -0.0228
     15 C         142.9396  141.3427  168.3757 C.ar    1  UNL1       -0.0038
     16 C         142.0595  141.7581  169.5170 C.ar    1  UNL1        0.0099
     17 C         140.8067  142.5396  169.2523 C.ar    1  UNL1        0.0682
     18 C         140.4342  142.9056  167.8461 C.ar    1  UNL1        0.0074
     19 C         141.3143  142.4901  166.7047 C.ar    1  UNL1       -0.0056
     20 C         140.9418  142.8561  165.2986 C.3     1  UNL1        0.1198
     21 C         139.9266  142.9550  170.3936 C.1     1  UNL1        0.1004
     22 N         139.0464  143.3704  171.5350 N.1     1  UNL1       -0.1908
     23 N         137.5034  140.8080  162.7751 N.3     1  UNL1       -0.2975
     24 H         136.6189  141.0872  163.1996 H       1  UNL1        0.1232
     25 C         138.4929  138.4100  162.9178 C.3     1  UNL1        0.1591
     26 C         139.0253  137.2709  163.7357 C.3     1  UNL1        0.1729
     27 O         139.1004  137.3907  165.2290 O.3     1  UNL1       -0.3511
     28 C         138.6431  138.6497  165.9044 C.3     1  UNL1        0.1437
     29 C         138.1108  139.7888  165.0864 C.3     1  UNL1        0.0503
     30 C         138.0357  139.6689  163.5931 C.3     1  UNL1        0.0865
     31 C         139.6679  138.3835  160.6007 C.3     1  UNL1        0.1742
     32 O         138.4178  138.2902  161.4245 O.3     1  UNL1       -0.3496
@<TRIPOS>BOND
     1    31    32    1
     2    32    25    1
     3    25    26    1
     4    26    27    1
     5    27    28    1
     6    28    29    1
     7    29    30    1
     8    30    23    1
     9     1    23    1
    10     1     2    1
    11     3     2    1
    12     3     4    1
    13     4     5    1
    14     5     6    1
    15     6     7    1
    16     7     9    1
    17     9    10    2
    18     9    11   am
    19    11    12    1
    20    12    13    1
    21    13    14    1
    22    14    15   ar
    23    15    16   ar
    24    16    17   ar
    25    17    21    1
    26    21    22    3
    27    17    18   ar
    28    18    19   ar
    29    19    20    1
    30     7     8    1
    31    30    25    1
    32     8     1    1
    33     7     3    1
    34    20    11    1
    35    19    14   ar
    36    23    24    1
@<TRIPOS>MOLECULE
*****
 32 36 0 0 0
SMALL
GASTEIGER

@<TRIPOS>ATOM
      1 C         140.8570  141.5917  162.3935 C.3     1  UNL1        0.0545
      2 C         139.4286  141.3613  161.9978 C.3     1  UNL1        0.0162
      3 C         139.0656  139.9543  162.3702 C.3     1  UNL1        0.0095
      4 C         137.9585  138.9424  162.3559 C.3     1  UNL1        0.0005
      5 C         138.4783  137.6778  162.9729 C.3     1  UNL1        0.0005
      6 C         139.9067  137.9082  163.3685 C.3     1  UNL1        0.0087
      7 C         140.2697  139.3151  162.9961 C.3     1  UNL1        0.0704
      8 C         141.3768  140.3271  163.0104 C.3     1  UNL1        0.0243
      9 C         141.4738  138.6760  163.6219 C.2     1  UNL1        0.2250
     10 O         142.3348  137.7489  162.8162 O.2     1  UNL1       -0.2749
     11 N         141.8169  138.9640  165.0535 N.am    1  UNL1       -0.2751
     12 C         143.0210  138.3248  165.6794 C.3     1  UNL1        0.0984
     13 C         143.3640  138.6128  167.1109 C.3     1  UNL1        0.0476
     14 C         142.5030  139.5399  167.9166 C.ar    1  UNL1       -0.0228
     15 C         142.8461  139.8279  169.3482 C.ar    1  UNL1       -0.0038
     16 C         141.9851  140.7550  170.1539 C.ar    1  UNL1        0.0099
     17 C         140.7810  141.3941  169.5280 C.ar    1  UNL1        0.0682
     18 C         140.4379  141.1061  168.0965 C.ar    1  UNL1        0.0074
     19 C         141.2990  140.1790  167.2908 C.ar    1  UNL1       -0.0056
     20 C         140.9559  139.8911  165.8592 C.3     1  UNL1        0.1198
     21 C         139.9200  142.3212  170.3337 C.1     1  UNL1        0.1004
     22 N         139.0590  143.2483  171.1394 N.1     1  UNL1       -0.1908
     23 N         141.6300  142.8634  162.2052 N.3     1  UNL1       -0.2975
     24 H         141.9493  143.1534  163.1295 H       1  UNL1        0.1232
     25 C         140.3447  145.1080  162.4495 C.3     1  UNL1        0.1591
     26 C         139.6845  146.3015  161.8252 C.3     1  UNL1        0.1729
     27 O         139.6493  146.4439  160.3325 O.3     1  UNL1       -0.3511
     28 C         140.2744  145.3927  159.4638 C.3     1  UNL1        0.1437
     29 C         140.9346  144.1992  160.0881 C.3     1  UNL1        0.0503
     30 C         140.9697  144.0569  161.5810 C.3     1  UNL1        0.0865
     31 C         139.2199  144.3462  164.6642 C.3     1  UNL1        0.1742
     32 O         140.3798  144.9656  163.9423 O.3     1  UNL1       -0.3496
@<TRIPOS>BOND
     1    31    32    1
     2    32    25    1
     3    25    26    1
     4    26    27    1
     5    27    28    1
     6    28    29    1
     7    29    30    1
     8    30    23    1
     9     1    23    1
    10     1     2    1
    11     3     2    1
    12     3     4    1
    13     4     5    1
    14     5     6    1
    15     6     7    1
    16     7     9    1
    17     9    10    2
    18     9    11   am
    19    11    12    1
    20    12    13    1
    21    13    14    1
    22    14    15   ar
    23    15    16   ar
    24    16    17   ar
    25    17    21    1
    26    21    22    3
    27    17    18   ar
    28    18    19   ar
    29    19    20    1
    30     7     8    1
    31    30    25    1
    32     8     1    1
    33     7     3    1
    34    20    11    1
    35    19    14   ar
    36    23    24    1
@<TRIPOS>MOLECULE
*****
 32 36 0 0 0
SMALL
GASTEIGER

@<TRIPOS>ATOM
      1 C         140.0760  142.1174  161.0173 C.3     1  UNL1        0.0545
      2 C         138.6171  141.8013  160.8698 C.3     1  UNL1        0.0162
      3 C         138.4190  140.3549  161.2146 C.3     1  UNL1        0.0095
      4 C         137.3950  139.2657  161.3365 C.3     1  UNL1        0.0005
      5 C         138.0986  138.0147  161.7725 C.3     1  UNL1        0.0005
      6 C         139.5575  138.3308  161.9200 C.3     1  UNL1        0.0087
      7 C         139.7555  139.7771  161.5752 C.3     1  UNL1        0.0704
      8 C         140.7795  140.8664  161.4533 C.3     1  UNL1        0.0243
      9 C         141.0920  139.1994  161.9359 C.2     1  UNL1        0.2250
     10 O         141.9794  138.6367  160.8654 O.2     1  UNL1       -0.2749
     11 N         141.5410  139.1843  163.3671 N.am    1  UNL1       -0.2751
     12 C         142.8775  138.6066  163.7277 C.3     1  UNL1        0.0984
     13 C         143.3265  138.5916  165.1588 C.3     1  UNL1        0.0476
     14 C         142.4391  139.1542  166.2293 C.ar    1  UNL1       -0.0228
     15 C         142.8881  139.1392  167.6604 C.ar    1  UNL1       -0.0038
     16 C         142.0007  139.7018  168.7309 C.ar    1  UNL1        0.0099
     17 C         140.6642  140.2796  168.3702 C.ar    1  UNL1        0.0682
     18 C         140.2152  140.2946  166.9391 C.ar    1  UNL1        0.0074
     19 C         141.1026  139.7320  165.8686 C.ar    1  UNL1       -0.0056
     20 C         140.6536  139.7470  164.4375 C.3     1  UNL1        0.1198
     21 C         139.7768  140.8423  169.4406 C.1     1  UNL1        0.1004
     22 N         138.8894  141.4049  170.5111 N.1     1  UNL1       -0.1908
     23 N         140.7185  143.4505  160.7720 N.3     1  UNL1       -0.2975
     24 H         141.1947  143.3867  159.8722 H       1  UNL1        0.1232
     25 C         141.2654  144.9161  162.8463 C.3     1  UNL1        0.1591
     26 C         142.2623  145.4598  163.8263 C.3     1  UNL1        0.1729
     27 O         143.7094  145.0817  163.7120 O.3     1  UNL1       -0.3511
     28 C         144.1595  144.1598  162.6176 C.3     1  UNL1        0.1437
     29 C         143.1626  143.6161  161.6376 C.3     1  UNL1        0.0503
     30 C         141.7155  143.9942  161.7520 C.3     1  UNL1        0.0865
     31 C         138.9417  144.6102  163.9675 C.3     1  UNL1        0.1742
     32 O         139.8184  145.2941  162.9606 O.3     1  UNL1       -0.3496
@<TRIPOS>BOND
     1    31    32    1
     2    32    25    1
     3    25    26    1
     4    26    27    1
     5    27    28    1
     6    28    29    1
     7    29    30    1
     8    30    23    1
     9     1    23    1
    10     1     2    1
    11     3     2    1
    12     3     4    1
    13     4     5    1
    14     5     6    1
    15     6     7    1
    16     7     9    1
    17     9    10    2
    18     9    11   am
    19    11    12    1
    20    12    13    1
    21    13    14    1
    22    14    15   ar
    23    15    16   ar
    24    16    17   ar
    25    17    21    1
    26    21    22    3
    27    17    18   ar
    28    18    19   ar
    29    19    20    1
    30     7     8    1
    31    30    25    1
    32     8     1    1
    33     7     3    1
    34    20    11    1
    35    19    14   ar
    36    23    24    1
@<TRIPOS>MOLECULE
*****
 32 36 0 0 0
SMALL
GASTEIGER

@<TRIPOS>ATOM
      1 C         142.9723  143.6600  161.6424 C.3     1  UNL1        0.0545
      2 C         144.2003  143.8576  162.4807 C.3     1  UNL1        0.0162
      3 C         144.6043  142.5227  163.0329 C.3     1  UNL1        0.0095
      4 C         145.6129  141.8198  163.8923 C.3     1  UNL1        0.0005
      5 C         145.2579  140.3628  163.9264 C.3     1  UNL1        0.0005
      6 C         144.0298  140.1652  163.0882 C.3     1  UNL1        0.0087
      7 C         143.6259  141.5001  162.5359 C.3     1  UNL1        0.0704
      8 C         142.6172  142.2030  161.6765 C.3     1  UNL1        0.0243
      9 C         142.6474  140.4775  162.0389 C.2     1  UNL1        0.2250
     10 O         142.7308  139.9849  160.6246 O.2     1  UNL1       -0.2749
     11 N         141.5855  139.9475  162.9563 N.am    1  UNL1       -0.2751
     12 C         140.6071  138.9250  162.4593 C.3     1  UNL1        0.0984
     13 C         139.5453  138.3950  163.3767 C.3     1  UNL1        0.0476
     14 C         139.4618  138.8876  164.7910 C.ar    1  UNL1       -0.0228
     15 C         138.3999  138.3576  165.7084 C.ar    1  UNL1       -0.0038
     16 C         138.3165  138.8502  167.1228 C.ar    1  UNL1        0.0099
     17 C         139.2950  139.8728  167.6197 C.ar    1  UNL1        0.0682
     18 C         140.3568  140.4028  166.7024 C.ar    1  UNL1        0.0074
     19 C         140.4403  139.9102  165.2880 C.ar    1  UNL1       -0.0056
     20 C         141.5021  140.4401  164.3707 C.3     1  UNL1        0.1198
     21 C         139.2116  140.3654  169.0341 C.1     1  UNL1        0.1004
     22 N         139.1282  140.8580  170.4484 N.1     1  UNL1       -0.1908
     23 N         142.2296  144.7313  160.9002 N.3     1  UNL1       -0.2975
     24 H         141.4798  145.0492  161.5143 H       1  UNL1        0.1232
     25 C         140.1298  144.1519  159.4841 C.3     1  UNL1        0.1591
     26 C         139.5020  143.8470  158.1564 C.3     1  UNL1        0.1729
     27 O         140.3463  143.8165  156.9169 O.3     1  UNL1       -0.3511
     28 C         141.8184  144.0909  157.0052 C.3     1  UNL1        0.1437
     29 C         142.4461  144.3959  158.3330 C.3     1  UNL1        0.0503
     30 C         141.6018  144.4264  159.5724 C.3     1  UNL1        0.0865
     31 C         138.9649  142.9065  161.4442 C.3     1  UNL1        0.1742
     32 O         139.2855  144.1824  160.7236 O.3     1  UNL1       -0.3496
@<TRIPOS>BOND
     1    31    32    1
     2    32    25    1
     3    25    26    1
     4    26    27    1
     5    27    28    1
     6    28    29    1
     7    29    30    1
     8    30    23    1
     9     1    23    1
    10     1     2    1
    11     3     2    1
    12     3     4    1
    13     4     5    1
    14     5     6    1
    15     6     7    1
    16     7     9    1
    17     9    10    2
    18     9    11   am
    19    11    12    1
    20    12    13    1
    21    13    14    1
    22    14    15   ar
    23    15    16   ar
    24    16    17   ar
    25    17    21    1
    26    21    22    3
    27    17    18   ar
    28    18    19   ar
    29    19    20    1
    30     7     8    1
    31    30    25    1
    32     8     1    1
    33     7     3    1
    34    20    11    1
    35    19    14   ar
    36    23    24    1
@<TRIPOS>MOLECULE
*****
 32 36 0 0 0
SMALL
GASTEIGER

@<TRIPOS>ATOM
      1 C         141.6261  141.8588  162.2809 C.3     1  UNL1        0.0545
      2 C         141.3768  143.2869  161.8957 C.3     1  UNL1        0.0162
      3 C         139.9852  143.6466  162.3248 C.3     1  UNL1        0.0095
      4 C         138.9710  144.7514  162.3519 C.3     1  UNL1        0.0005
      5 C         137.7335  144.2285  163.0190 C.3     1  UNL1        0.0005
      6 C         137.9828  142.8004  163.4042 C.3     1  UNL1        0.0087
      7 C         139.3744  142.4407  162.9752 C.3     1  UNL1        0.0704
      8 C         140.3885  141.3358  162.9480 C.3     1  UNL1        0.0243
      9 C         138.7637  141.2349  163.6255 C.2     1  UNL1        0.2250
     10 O         137.8552  140.3375  162.8385 O.2     1  UNL1       -0.2749
     11 N         139.0614  140.9264  165.0630 N.am    1  UNL1       -0.2751
     12 C         138.4506  139.7206  165.7133 C.3     1  UNL1        0.0984
     13 C         138.7484  139.4122  167.1508 C.3     1  UNL1        0.0476
     14 C         139.6568  140.3095  167.9378 C.ar    1  UNL1       -0.0228
     15 C         139.9545  140.0010  169.3753 C.ar    1  UNL1       -0.0038
     16 C         140.8630  140.8984  170.1623 C.ar    1  UNL1        0.0099
     17 C         141.4737  142.1043  169.5119 C.ar    1  UNL1        0.0682
     18 C         141.1760  142.4127  168.0745 C.ar    1  UNL1        0.0074
     19 C         140.2675  141.5153  167.2875 C.ar    1  UNL1       -0.0056
     20 C         139.9698  141.8238  165.8500 C.3     1  UNL1        0.1198
     21 C         142.3822  143.0016  170.2990 C.1     1  UNL1        0.1004
     22 N         143.2906  143.8990  171.0860 N.1     1  UNL1       -0.1908
     23 N         142.8909  141.0888  162.0411 N.3     1  UNL1       -0.2975
     24 H         143.6272  141.7755  161.8776 H       1  UNL1        0.1232
     25 C         142.8526  138.6305  161.2013 C.3     1  UNL1        0.1591
     26 C         142.9262  137.6407  160.0767 C.3     1  UNL1        0.1729
     27 O         143.1117  138.1192  158.6672 O.3     1  UNL1       -0.3511
     28 C         143.2237  139.5877  158.3824 C.3     1  UNL1        0.1437
     29 C         143.1501  140.5776  159.5070 C.3     1  UNL1        0.0503
     30 C         142.9645  140.0989  160.9165 C.3     1  UNL1        0.0865
     31 C         141.3641  137.5371  163.0286 C.3     1  UNL1        0.1742
     32 O         142.6670  138.1519  162.6107 O.3     1  UNL1       -0.3496
@<TRIPOS>BOND
     1    31    32    1
     2    32    25    1
     3    25    26    1
     4    26    27    1
     5    27    28    1
     6    28    29    1
     7    29    30    1
     8    30    23    1
     9     1    23    1
    10     1     2    1
    11     3     2    1
    12     3     4    1
    13     4     5    1
    14     5     6    1
    15     6     7    1
    16     7     9    1
    17     9    10    2
    18     9    11   am
    19    11    12    1
    20    12    13    1
    21    13    14    1
    22    14    15   ar
    23    15    16   ar
    24    16    17   ar
    25    17    21    1
    26    21    22    3
    27    17    18   ar
    28    18    19   ar
    29    19    20    1
    30     7     8    1
    31    30    25    1
    32     8     1    1
    33     7     3    1
    34    20    11    1
    35    19    14   ar
    36    23    24    1
@<TRIPOS>MOLECULE
*****
 32 36 0 0 0
SMALL
GASTEIGER

@<TRIPOS>ATOM
      1 C         142.9183  142.6616  160.0910 C.3     1  UNL1        0.0545
      2 C         141.6312  143.2382  159.5801 C.3     1  UNL1        0.0162
      3 C         141.1279  144.2205  160.5958 C.3     1  UNL1        0.0095
      4 C         140.0214  145.1839  160.9079 C.3     1  UNL1        0.0005
      5 C         140.3135  145.8098  162.2394 C.3     1  UNL1        0.0005
      6 C         141.6005  145.2332  162.7503 C.3     1  UNL1        0.0087
      7 C         142.1039  144.2509  161.7346 C.3     1  UNL1        0.0704
      8 C         143.2104  143.2875  161.4225 C.3     1  UNL1        0.0243
      9 C         143.0798  144.2814  162.8732 C.2     1  UNL1        0.2250
     10 O         144.3094  145.1359  162.7845 O.2     1  UNL1       -0.2749
     11 N         142.8262  143.4573  164.1007 N.am    1  UNL1       -0.2751
     12 C         143.8022  143.4877  165.2393 C.3     1  UNL1        0.0984
     13 C         143.5485  142.6636  166.4667 C.3     1  UNL1        0.0476
     14 C         142.3190  141.8090  166.5554 C.ar    1  UNL1       -0.0228
     15 C         142.0654  140.9849  167.7828 C.ar    1  UNL1       -0.0038
     16 C         140.8358  140.1303  167.8716 C.ar    1  UNL1        0.0099
     17 C         139.8598  140.0999  166.7328 C.ar    1  UNL1        0.0682
     18 C         140.1134  140.9240  165.5055 C.ar    1  UNL1        0.0074
     19 C         141.3430  141.7786  165.4168 C.ar    1  UNL1       -0.0056
     20 C         141.5966  142.6027  164.1894 C.3     1  UNL1        0.1198
     21 C         138.6302  139.2454  166.8216 C.1     1  UNL1        0.1004
     22 N         137.4007  138.3908  166.9103 N.1     1  UNL1       -0.1908
     23 N         143.7647  141.6386  159.3929 N.3     1  UNL1       -0.2975
     24 H         143.6357  141.7834  158.3916 H       1  UNL1        0.1232
     25 C         144.0922  139.5438  160.8944 C.3     1  UNL1        0.1591
     26 C         143.8693  138.0832  161.1530 C.3     1  UNL1        0.1729
     27 O         143.0960  137.2567  160.1688 O.3     1  UNL1       -0.3511
     28 C         142.5455  137.8909  158.9258 C.3     1  UNL1        0.1437
     29 C         142.7684  139.3515  158.6672 C.3     1  UNL1        0.0503
     30 C         143.5418  140.1780  159.6516 C.3     1  UNL1        0.0865
     31 C         144.5120  140.3270  163.3359 C.3     1  UNL1        0.1742
     32 O         144.8656  140.3703  161.8787 O.3     1  UNL1       -0.3496
@<TRIPOS>BOND
     1    31    32    1
     2    32    25    1
     3    25    26    1
     4    26    27    1
     5    27    28    1
     6    28    29    1
     7    29    30    1
     8    30    23    1
     9     1    23    1
    10     1     2    1
    11     3     2    1
    12     3     4    1
    13     4     5    1
    14     5     6    1
    15     6     7    1
    16     7     9    1
    17     9    10    2
    18     9    11   am
    19    11    12    1
    20    12    13    1
    21    13    14    1
    22    14    15   ar
    23    15    16   ar
    24    16    17   ar
    25    17    21    1
    26    21    22    3
    27    17    18   ar
    28    18    19   ar
    29    19    20    1
    30     7     8    1
    31    30    25    1
    32     8     1    1
    33     7     3    1
    34    20    11    1
    35    19    14   ar
    36    23    24    1
@<TRIPOS>MOLECULE
*****
 32 36 0 0 0
SMALL
GASTEIGER

@<TRIPOS>ATOM
      1 C         139.9033  142.6454  163.3193 C.3     1  UNL1        0.0545
      2 C         140.2418  144.0987  163.1670 C.3     1  UNL1        0.0162
      3 C         141.7361  144.2288  163.1638 C.3     1  UNL1        0.0095
      4 C         142.8689  145.2073  163.0676 C.3     1  UNL1        0.0005
      5 C         144.1541  144.4391  163.1585 C.3     1  UNL1        0.0005
      6 C         143.8156  142.9858  163.3108 C.3     1  UNL1        0.0087
      7 C         142.3213  142.8557  163.3140 C.3     1  UNL1        0.0704
      8 C         141.1885  141.8772  163.4101 C.3     1  UNL1        0.0243
      9 C         142.9063  141.4828  163.4643 C.2     1  UNL1        0.2250
     10 O         143.5093  140.7905  162.2780 O.2     1  UNL1       -0.2749
     11 N         142.8884  140.8020  164.8008 N.am    1  UNL1       -0.2751
     12 C         143.4735  139.4290  164.9511 C.3     1  UNL1        0.0984
     13 C         143.4556  138.7484  166.2876 C.3     1  UNL1        0.0476
     14 C         142.8526  139.4407  167.4739 C.ar    1  UNL1       -0.0228
     15 C         142.8348  138.7599  168.8104 C.ar    1  UNL1       -0.0038
     16 C         142.2318  139.4522  169.9967 C.ar    1  UNL1        0.0099
     17 C         141.6468  140.8252  169.8464 C.ar    1  UNL1        0.0682
     18 C         141.6647  141.5059  168.5099 C.ar    1  UNL1        0.0074
     19 C         142.2676  140.8136  167.3236 C.ar    1  UNL1       -0.0056
     20 C         142.2855  141.4943  165.9871 C.3     1  UNL1        0.1198
     21 C         141.0438  141.5175  171.0326 C.1     1  UNL1        0.1004
     22 N         140.4409  142.2098  172.2189 N.1     1  UNL1       -0.1908
     23 N         138.5221  142.0625  163.3715 N.3     1  UNL1       -0.2975
     24 H         138.2565  142.0224  164.3555 H       1  UNL1        0.1232
     25 C         138.5658  139.4752  163.6031 C.3     1  UNL1        0.1591
     26 C         138.3036  138.1148  163.0280 C.3     1  UNL1        0.1729
     27 O         137.7356  137.9815  161.6461 O.3     1  UNL1       -0.3511
     28 C         137.4297  139.2086  160.8393 C.3     1  UNL1        0.1437
     29 C         137.6919  140.5689  161.4145 C.3     1  UNL1        0.0503
     30 C         138.2600  140.7022  162.7964 C.3     1  UNL1        0.0865
     31 C         138.3169  139.1987  166.1744 C.3     1  UNL1        0.1742
     32 O         139.1338  139.6085  164.9849 O.3     1  UNL1       -0.3496
@<TRIPOS>BOND
     1    31    32    1
     2    32    25    1
     3    25    26    1
     4    26    27    1
     5    27    28    1
     6    28    29    1
     7    29    30    1
     8    30    23    1
     9     1    23    1
    10     1     2    1
    11     3     2    1
    12     3     4    1
    13     4     5    1
    14     5     6    1
    15     6     7    1
    16     7     9    1
    17     9    10    2
    18     9    11   am
    19    11    12    1
    20    12    13    1
    21    13    14    1
    22    14    15   ar
    23    15    16   ar
    24    16    17   ar
    25    17    21    1
    26    21    22    3
    27    17    18   ar
    28    18    19   ar
    29    19    20    1
    30     7     8    1
    31    30    25    1
    32     8     1    1
    33     7     3    1
    34    20    11    1
    35    19    14   ar
    36    23    24    1
