@<TRIPOS>MOLECULE
*****
 27 30 0 0 0
SMALL
GASTEIGER

@<TRIPOS>ATOM
      1 O         143.6191  142.5408  166.8827 O.3     1  UNL1       -0.3768
      2 C         142.4500  142.0702  166.0693 C.3     1  UNL1        0.1456
      3 H         143.3674  142.5789  167.8187 H       1  UNL1        0.2112
      4 C         141.8528  141.4399  167.2924 C.ar    1  UNL1        0.0264
      5 C         140.6192  142.0265  167.9121 C.ar    1  UNL1        0.0015
      6 C         140.0220  141.3962  169.1352 C.ar    1  UNL1        0.0204
      7 C         140.6584  140.1792  169.7386 C.ar    1  UNL1        0.0989
      8 N         141.8920  139.5927  169.1189 N.ar    1  UNL1       -0.2426
      9 C         142.4892  140.2230  167.8958 C.ar    1  UNL1        0.0972
     10 C         143.0473  142.7005  164.8462 C.ar    1  UNL1        0.0264
     11 C         142.9996  144.1895  164.6704 C.ar    1  UNL1        0.0015
     12 C         143.5969  144.8198  163.4473 C.ar    1  UNL1        0.0204
     13 C         144.2418  143.9612  162.4000 C.ar    1  UNL1        0.0989
     14 N         144.2894  142.4723  162.5757 N.ar    1  UNL1       -0.2426
     15 C         143.6922  141.8419  163.7988 C.ar    1  UNL1        0.0972
     16 C         141.2809  141.5996  165.2558 C.3     1  UNL1        0.1130
     17 C         140.3509  142.5976  164.6320 C.ar    1  UNL1       -0.0049
     18 C         139.6994  143.6485  165.4811 C.ar    1  UNL1       -0.0029
     19 C         138.7694  144.6465  164.8574 C.ar    1  UNL1       -0.0003
     20 C         138.4909  144.5936  163.3843 C.ar    1  UNL1       -0.0000
     21 C         139.1425  143.5426  162.5352 C.ar    1  UNL1       -0.0003
     22 C         140.0725  142.5446  163.1590 C.ar    1  UNL1       -0.0029
     23 N         141.0418  140.1309  165.0662 N.3     1  UNL1       -0.2679
     24 C         139.7641  139.4009  165.3574 C.3     1  UNL1        0.0725
     25 C         139.9711  137.9533  165.0233 C.3     1  UNL1        0.0188
     26 C         141.3765  137.7887  164.5256 C.3     1  UNL1        0.0188
     27 C         142.0382  139.1345  164.5522 C.3     1  UNL1        0.0725
@<TRIPOS>BOND
     1     1     2    1
     2     2     4    1
     3     4     5   ar
     4     5     6   ar
     5     6     7   ar
     6     7     8   ar
     7     8     9   ar
     8     2    10    1
     9    10    11   ar
    10    11    12   ar
    11    12    13   ar
    12    13    14   ar
    13    14    15   ar
    14     2    16    1
    15    16    17    1
    16    17    18   ar
    17    18    19   ar
    18    19    20   ar
    19    20    21   ar
    20    21    22   ar
    21    16    23    1
    22    23    24    1
    23    24    25    1
    24    25    26    1
    25    26    27    1
    26     9     4   ar
    27    15    10   ar
    28    22    17   ar
    29    27    23    1
    30     1     3    1
@<TRIPOS>MOLECULE
*****
 27 30 0 0 0
SMALL
GASTEIGER

@<TRIPOS>ATOM
      1 O         143.6202  142.5363  166.8793 O.3     1  UNL1       -0.3768
      2 C         142.4479  142.0638  166.0716 C.3     1  UNL1        0.1456
      3 H         144.3733  142.7006  166.2905 H       1  UNL1        0.2112
      4 C         143.0397  142.6926  164.8450 C.ar    1  UNL1        0.0264
      5 C         142.9950  144.1817  164.6696 C.ar    1  UNL1        0.0015
      6 C         143.5867  144.8104  163.4431 C.ar    1  UNL1        0.0204
      7 C         144.2231  143.9502  162.3919 C.ar    1  UNL1        0.0989
      8 N         144.2678  142.4612  162.5672 N.ar    1  UNL1       -0.2426
      9 C         143.6760  141.8324  163.7938 C.ar    1  UNL1        0.0972
     10 C         141.8562  141.4350  167.2981 C.ar    1  UNL1        0.0264
     11 C         140.6255  142.0225  167.9229 C.ar    1  UNL1        0.0015
     12 C         140.0338  141.3937  169.1494 C.ar    1  UNL1        0.0204
     13 C         140.6728  140.1774  169.7513 C.ar    1  UNL1        0.0989
     14 N         141.9034  139.5899  169.1266 N.ar    1  UNL1       -0.2426
     15 C         142.4952  140.2187  167.9000 C.ar    1  UNL1        0.0972
     16 C         141.2756  141.5913  165.2638 C.3     1  UNL1        0.1130
     17 C         140.3423  142.5879  164.6427 C.ar    1  UNL1       -0.0049
     18 C         140.0475  142.5248  163.1733 C.ar    1  UNL1       -0.0029
     19 C         139.1143  143.5214  162.5521 C.ar    1  UNL1       -0.0003
     20 C         138.4757  144.5810  163.4003 C.ar    1  UNL1       -0.0000
     21 C         138.7704  144.6441  164.8697 C.ar    1  UNL1       -0.0003
     22 C         139.7038  143.6475  165.4909 C.ar    1  UNL1       -0.0029
     23 N         141.0366  140.1223  165.0773 N.3     1  UNL1       -0.2679
     24 C         139.7601  139.3921  165.3735 C.3     1  UNL1        0.0725
     25 C         139.9667  137.9441  165.0410 C.3     1  UNL1        0.0188
     26 C         141.3707  137.7794  164.5393 C.3     1  UNL1        0.0188
     27 C         142.0319  139.1255  164.5618 C.3     1  UNL1        0.0725
@<TRIPOS>BOND
     1     1     2    1
     2     2     4    1
     3     4     5   ar
     4     5     6   ar
     5     6     7   ar
     6     7     8   ar
     7     8     9   ar
     8     2    10    1
     9    10    11   ar
    10    11    12   ar
    11    12    13   ar
    12    13    14   ar
    13    14    15   ar
    14     2    16    1
    15    16    17    1
    16    17    18   ar
    17    18    19   ar
    18    19    20   ar
    19    20    21   ar
    20    21    22   ar
    21    16    23    1
    22    23    24    1
    23    24    25    1
    24    25    26    1
    25    26    27    1
    26     9     4   ar
    27    15    10   ar
    28    22    17   ar
    29    27    23    1
    30     1     3    1
@<TRIPOS>MOLECULE
*****
 27 30 0 0 0
SMALL
GASTEIGER

@<TRIPOS>ATOM
      1 O         143.5067  142.1252  166.1879 O.3     1  UNL1       -0.3768
      2 C         142.0698  141.8931  165.8254 C.3     1  UNL1        0.1456
      3 H         143.5979  142.1420  167.1535 H       1  UNL1        0.2112
      4 C         141.8273  141.2860  167.1755 C.ar    1  UNL1        0.0264
      5 C         142.4519  139.9688  167.5286 C.ar    1  UNL1        0.0015
      6 C         142.2094  139.3617  168.8787 C.ar    1  UNL1        0.0204
      7 C         141.3423  140.0718  169.8756 C.ar    1  UNL1        0.0989
      8 N         140.7177  141.3890  169.5224 N.ar    1  UNL1       -0.2426
      9 C         140.9602  141.9961  168.1724 C.ar    1  UNL1        0.0972
     10 C         142.3123  142.5002  164.4754 C.ar    1  UNL1        0.0264
     11 C         142.5177  143.9804  164.3446 C.ar    1  UNL1        0.0015
     12 C         142.7602  144.5875  162.9946 C.ar    1  UNL1        0.0204
     13 C         142.7974  143.7145  161.7754 C.ar    1  UNL1        0.0989
     14 N         142.5921  142.2344  161.9061 N.ar    1  UNL1       -0.2426
     15 C         142.3495  141.6272  163.2562 C.ar    1  UNL1        0.0972
     16 C         140.6329  141.6610  165.4629 C.3     1  UNL1        0.1130
     17 C         140.0904  140.2637  165.4043 C.ar    1  UNL1       -0.0049
     18 C         138.8145  139.9241  166.1161 C.ar    1  UNL1       -0.0029
     19 C         138.2720  138.5269  166.0575 C.ar    1  UNL1       -0.0003
     20 C         139.0055  137.4692  165.2871 C.ar    1  UNL1       -0.0000
     21 C         140.2814  137.8088  164.5754 C.ar    1  UNL1       -0.0003
     22 C         140.8239  139.2061  164.6340 C.ar    1  UNL1       -0.0029
     23 N         139.7384  142.8262  165.1590 N.3     1  UNL1       -0.2679
     24 C         138.9408  143.0215  163.9037 C.3     1  UNL1        0.0725
     25 C         138.1940  144.3165  164.0260 C.3     1  UNL1        0.0188
     26 C         138.5300  144.9216  165.3567 C.3     1  UNL1        0.0188
     27 C         139.4845  144.0005  166.0570 C.3     1  UNL1        0.0725
@<TRIPOS>BOND
     1     1     2    1
     2     2     4    1
     3     4     5   ar
     4     5     6   ar
     5     6     7   ar
     6     7     8   ar
     7     8     9   ar
     8     2    10    1
     9    10    11   ar
    10    11    12   ar
    11    12    13   ar
    12    13    14   ar
    13    14    15   ar
    14     2    16    1
    15    16    17    1
    16    17    18   ar
    17    18    19   ar
    18    19    20   ar
    19    20    21   ar
    20    21    22   ar
    21    16    23    1
    22    23    24    1
    23    24    25    1
    24    25    26    1
    25    26    27    1
    26     9     4   ar
    27    15    10   ar
    28    22    17   ar
    29    27    23    1
    30     1     3    1
@<TRIPOS>MOLECULE
*****
 27 30 0 0 0
SMALL
GASTEIGER

@<TRIPOS>ATOM
      1 O         142.3934  139.5326  166.8081 O.3     1  UNL1       -0.3768
      2 C         141.6985  140.0605  165.5881 C.3     1  UNL1        0.1456
      3 H         143.3362  139.4101  166.6156 H       1  UNL1        0.2112
      4 C         143.0070  140.5751  165.0655 C.ar    1  UNL1        0.0264
      5 C         143.2863  142.0488  165.0633 C.ar    1  UNL1        0.0015
      6 C         144.5948  142.5633  164.5408 C.ar    1  UNL1        0.0204
      7 C         145.6239  141.6042  164.0203 C.ar    1  UNL1        0.0989
      8 N         145.3446  140.1304  164.0225 N.ar    1  UNL1       -0.2426
      9 C         144.0361  139.6159  164.5451 C.ar    1  UNL1        0.0972
     10 C         140.3900  139.5459  166.1107 C.ar    1  UNL1        0.0264
     11 C         139.5994  138.5551  165.3084 C.ar    1  UNL1        0.0015
     12 C         138.2910  138.0405  165.8310 C.ar    1  UNL1        0.0204
     13 C         137.7731  138.5166  167.1558 C.ar    1  UNL1        0.0989
     14 N         138.5637  139.5072  167.9581 N.ar    1  UNL1       -0.2426
     15 C         139.8722  140.0219  167.4355 C.ar    1  UNL1        0.0972
     16 C         141.0036  140.5883  164.3681 C.3     1  UNL1        0.1130
     17 C         139.9923  141.6886  164.4980 C.ar    1  UNL1       -0.0049
     18 C         138.6625  141.5695  163.8143 C.ar    1  UNL1       -0.0029
     19 C         137.6512  142.6697  163.9442 C.ar    1  UNL1       -0.0003
     20 C         137.9698  143.8891  164.7578 C.ar    1  UNL1       -0.0000
     21 C         139.2996  144.0081  165.4414 C.ar    1  UNL1       -0.0003
     22 C         140.3109  142.9078  165.3115 C.ar    1  UNL1       -0.0029
     23 N         141.3199  140.0160  163.0181 N.3     1  UNL1       -0.2679
     24 C         141.2308  138.5695  162.6308 C.3     1  UNL1        0.0725
     25 C         141.6367  138.4493  161.1918 C.3     1  UNL1        0.0188
     26 C         141.9766  139.8213  160.6898 C.3     1  UNL1        0.0188
     27 C         141.7808  140.7895  161.8185 C.3     1  UNL1        0.0725
@<TRIPOS>BOND
     1     1     2    1
     2     2     4    1
     3     4     5   ar
     4     5     6   ar
     5     6     7   ar
     6     7     8   ar
     7     8     9   ar
     8     2    10    1
     9    10    11   ar
    10    11    12   ar
    11    12    13   ar
    12    13    14   ar
    13    14    15   ar
    14     2    16    1
    15    16    17    1
    16    17    18   ar
    17    18    19   ar
    18    19    20   ar
    19    20    21   ar
    20    21    22   ar
    21    16    23    1
    22    23    24    1
    23    24    25    1
    24    25    26    1
    25    26    27    1
    26     9     4   ar
    27    15    10   ar
    28    22    17   ar
    29    27    23    1
    30     1     3    1
@<TRIPOS>MOLECULE
*****
 27 30 0 0 0
SMALL
GASTEIGER

@<TRIPOS>ATOM
      1 O         139.8782  142.9911  166.5098 O.3     1  UNL1       -0.3768
      2 C         140.5133  141.8550  165.7642 C.3     1  UNL1        0.1456
      3 H         139.5189  143.6324  165.8770 H       1  UNL1        0.2112
      4 C         139.6831  142.1823  164.5585 C.ar    1  UNL1        0.0264
      5 C         138.2209  141.8483  164.5415 C.ar    1  UNL1        0.0015
      6 C         137.3908  142.1756  163.3358 C.ar    1  UNL1        0.0204
      7 C         138.0230  142.8369  162.1470 C.ar    1  UNL1        0.0989
      8 N         139.4852  143.1709  162.1640 N.ar    1  UNL1       -0.2426
      9 C         140.3153  142.8436  163.3697 C.ar    1  UNL1        0.0972
     10 C         141.3433  141.5277  166.9700 C.ar    1  UNL1        0.0264
     11 C         142.4425  142.4545  167.3979 C.ar    1  UNL1        0.0015
     12 C         143.2726  142.1273  168.6036 C.ar    1  UNL1        0.0204
     13 C         143.0036  140.8732  169.3815 C.ar    1  UNL1        0.0989
     14 N         141.9045  139.9465  168.9536 N.ar    1  UNL1       -0.2426
     15 C         141.0744  140.2737  167.7478 C.ar    1  UNL1        0.0972
     16 C         141.1483  140.7189  165.0187 C.3     1  UNL1        0.1130
     17 C         142.6105  140.7637  164.6867 C.ar    1  UNL1       -0.0049
     18 C         143.2242  142.0322  164.1726 C.ar    1  UNL1       -0.0029
     19 C         144.6863  142.0772  163.8407 C.ar    1  UNL1       -0.0003
     20 C         145.5347  140.8536  164.0228 C.ar    1  UNL1       -0.0000
     21 C         144.9210  139.5851  164.5369 C.ar    1  UNL1       -0.0003
     22 C         143.4588  139.5402  164.8689 C.ar    1  UNL1       -0.0029
     23 N         140.3213  139.5378  164.6050 N.3     1  UNL1       -0.2679
     24 C         140.1616  139.0197  163.2064 C.3     1  UNL1        0.0725
     25 C         139.2503  137.8292  163.2544 C.3     1  UNL1        0.0188
     26 C         138.8468  137.6116  164.6826 C.3     1  UNL1        0.0188
     27 C         139.5087  138.6675  165.5173 C.3     1  UNL1        0.0725
@<TRIPOS>BOND
     1     1     2    1
     2     2     4    1
     3     4     5   ar
     4     5     6   ar
     5     6     7   ar
     6     7     8   ar
     7     8     9   ar
     8     2    10    1
     9    10    11   ar
    10    11    12   ar
    11    12    13   ar
    12    13    14   ar
    13    14    15   ar
    14     2    16    1
    15    16    17    1
    16    17    18   ar
    17    18    19   ar
    18    19    20   ar
    19    20    21   ar
    20    21    22   ar
    21    16    23    1
    22    23    24    1
    23    24    25    1
    24    25    26    1
    25    26    27    1
    26     9     4   ar
    27    15    10   ar
    28    22    17   ar
    29    27    23    1
    30     1     3    1
@<TRIPOS>MOLECULE
*****
 27 30 0 0 0
SMALL
GASTEIGER

@<TRIPOS>ATOM
      1 O         142.3516  139.5125  166.8221 O.3     1  UNL1       -0.3768
      2 C         141.6588  140.0399  165.6007 C.3     1  UNL1        0.1456
      3 H         141.7058  139.4010  167.5373 H       1  UNL1        0.2112
      4 C         140.3512  139.5155  166.1159 C.ar    1  UNL1        0.0264
      5 C         139.5862  138.4982  165.3223 C.ar    1  UNL1        0.0015
      6 C         138.2787  137.9738  165.8375 C.ar    1  UNL1        0.0204
      7 C         137.7363  138.4666  167.1463 C.ar    1  UNL1        0.0989
      8 N         138.5014  139.4839  167.9399 N.ar    1  UNL1       -0.2426
      9 C         139.8089  140.0083  167.4247 C.ar    1  UNL1        0.0972
     10 C         142.9663  140.5644  165.0856 C.ar    1  UNL1        0.0264
     11 C         143.9874  139.6170  164.5288 C.ar    1  UNL1        0.0015
     12 C         145.2949  140.1414  164.0137 C.ar    1  UNL1        0.0204
     13 C         145.5813  141.6132  164.0553 C.ar    1  UNL1        0.0989
     14 N         144.5603  142.5606  164.6119 N.ar    1  UNL1       -0.2426
     15 C         143.2527  142.0362  165.1271 C.ar    1  UNL1        0.0972
     16 C         140.9660  140.5674  164.3793 C.3     1  UNL1        0.1130
     17 C         139.9565  141.6695  164.5068 C.ar    1  UNL1       -0.0049
     18 C         140.2803  142.8940  165.3104 C.ar    1  UNL1       -0.0029
     19 C         139.2708  143.9961  165.4379 C.ar    1  UNL1       -0.0003
     20 C         137.9374  143.8737  164.7617 C.ar    1  UNL1       -0.0000
     21 C         137.6135  142.6492  163.9582 C.ar    1  UNL1       -0.0003
     22 C         138.6231  141.5471  163.8307 C.ar    1  UNL1       -0.0029
     23 N         141.2828  139.9928  163.0304 N.3     1  UNL1       -0.2679
     24 C         141.7457  140.7642  161.8300 C.3     1  UNL1        0.0725
     25 C         141.9412  139.7941  160.7029 C.3     1  UNL1        0.0188
     26 C         141.5992  138.4232  161.2066 C.3     1  UNL1        0.0188
     27 C         141.1923  138.5460  162.6450 C.3     1  UNL1        0.0725
@<TRIPOS>BOND
     1     1     2    1
     2     2     4    1
     3     4     5   ar
     4     5     6   ar
     5     6     7   ar
     6     7     8   ar
     7     8     9   ar
     8     2    10    1
     9    10    11   ar
    10    11    12   ar
    11    12    13   ar
    12    13    14   ar
    13    14    15   ar
    14     2    16    1
    15    16    17    1
    16    17    18   ar
    17    18    19   ar
    18    19    20   ar
    19    20    21   ar
    20    21    22   ar
    21    16    23    1
    22    23    24    1
    23    24    25    1
    24    25    26    1
    25    26    27    1
    26     9     4   ar
    27    15    10   ar
    28    22    17   ar
    29    27    23    1
    30     1     3    1
@<TRIPOS>MOLECULE
*****
 27 30 0 0 0
SMALL
GASTEIGER

@<TRIPOS>ATOM
      1 O         143.2904  142.0292  166.5033 O.3     1  UNL1       -0.3768
      2 C         141.8931  141.7902  166.0129 C.3     1  UNL1        0.1456
      3 H         143.9007  142.0368  165.7494 H       1  UNL1        0.2112
      4 C         142.2875  142.2797  164.6509 C.ar    1  UNL1        0.0264
      5 C         142.5144  143.7438  164.4167 C.ar    1  UNL1        0.0015
      6 C         142.9087  144.2331  163.0548 C.ar    1  UNL1        0.0204
      7 C         143.0762  143.2584  161.9270 C.ar    1  UNL1        0.0989
      8 N         142.8493  141.7943  162.1612 N.ar    1  UNL1       -0.2426
      9 C         142.4550  141.3049  163.5232 C.ar    1  UNL1        0.0972
     10 C         141.4988  141.3008  167.3749 C.ar    1  UNL1        0.0264
     11 C         140.5567  142.1080  168.2182 C.ar    1  UNL1        0.0015
     12 C         140.1624  141.6186  169.5802 C.ar    1  UNL1        0.0204
     13 C         140.7102  140.3221  170.0989 C.ar    1  UNL1        0.0989
     14 N         141.6522  139.5150  169.2557 N.ar    1  UNL1       -0.2426
     15 C         142.0466  140.0043  167.8936 C.ar    1  UNL1        0.0972
     16 C         140.4959  141.5513  165.5226 C.3     1  UNL1        0.1130
     17 C         139.9334  140.1608  165.5085 C.ar    1  UNL1       -0.0049
     18 C         138.6622  139.8585  166.2451 C.ar    1  UNL1       -0.0029
     19 C         138.0997  138.4681  166.2310 C.ar    1  UNL1       -0.0003
     20 C         138.8085  137.3798  165.4803 C.ar    1  UNL1       -0.0000
     21 C         140.0797  137.6821  164.7437 C.ar    1  UNL1       -0.0003
     22 C         140.6422  139.0727  164.7578 C.ar    1  UNL1       -0.0029
     23 N         139.6610  142.7029  165.0463 N.3     1  UNL1       -0.2679
     24 C         138.9731  142.8028  163.7170 C.3     1  UNL1        0.0725
     25 C         138.2544  144.1184  163.6649 C.3     1  UNL1        0.0188
     26 C         138.4981  144.8315  164.9618 C.3     1  UNL1        0.0188
     27 C         139.3674  143.9567  165.8155 C.3     1  UNL1        0.0725
@<TRIPOS>BOND
     1     1     2    1
     2     2     4    1
     3     4     5   ar
     4     5     6   ar
     5     6     7   ar
     6     7     8   ar
     7     8     9   ar
     8     2    10    1
     9    10    11   ar
    10    11    12   ar
    11    12    13   ar
    12    13    14   ar
    13    14    15   ar
    14     2    16    1
    15    16    17    1
    16    17    18   ar
    17    18    19   ar
    18    19    20   ar
    19    20    21   ar
    20    21    22   ar
    21    16    23    1
    22    23    24    1
    23    24    25    1
    24    25    26    1
    25    26    27    1
    26     9     4   ar
    27    15    10   ar
    28    22    17   ar
    29    27    23    1
    30     1     3    1
@<TRIPOS>MOLECULE
*****
 27 30 0 0 0
SMALL
GASTEIGER

@<TRIPOS>ATOM
      1 O         140.5344  137.5505  164.9948 O.3     1  UNL1       -0.3768
      2 C         140.7575  138.9970  164.6662 C.3     1  UNL1        0.1456
      3 H         139.8619  137.1838  164.3997 H       1  UNL1        0.2112
      4 C         140.2116  138.7681  163.2879 C.ar    1  UNL1        0.0264
      5 C         138.7396  138.5588  163.0894 C.ar    1  UNL1        0.0015
      6 C         138.1938  138.3299  161.7112 C.ar    1  UNL1        0.0204
      7 C         139.1199  138.3103  160.5314 C.ar    1  UNL1        0.0989
      8 N         140.5919  138.5195  160.7299 N.ar    1  UNL1       -0.2426
      9 C         141.1377  138.7484  162.1082 C.ar    1  UNL1        0.0972
     10 C         141.3034  139.2258  166.0445 C.ar    1  UNL1        0.0264
     11 C         140.4796  139.9519  167.0664 C.ar    1  UNL1        0.0015
     12 C         141.0255  140.1808  168.4447 C.ar    1  UNL1        0.0204
     13 C         142.3951  139.6836  168.8011 C.ar    1  UNL1        0.0989
     14 N         143.2188  138.9575  167.7792 N.ar    1  UNL1       -0.2426
     15 C         142.6729  138.7286  166.4009 C.ar    1  UNL1        0.0972
     16 C         140.9806  140.4434  164.3377 C.3     1  UNL1        0.1130
     17 C         142.3723  141.0028  164.3209 C.ar    1  UNL1       -0.0049
     18 C         142.7013  142.2199  165.1336 C.ar    1  UNL1       -0.0029
     19 C         144.0929  142.7793  165.1168 C.ar    1  UNL1       -0.0003
     20 C         145.1557  142.1215  164.2874 C.ar    1  UNL1       -0.0000
     21 C         144.8268  140.9044  163.4748 C.ar    1  UNL1       -0.0003
     22 C         143.4350  140.3450  163.4915 C.ar    1  UNL1       -0.0029
     23 N         139.8119  141.3306  164.0260 N.3     1  UNL1       -0.2679
     24 C         138.6435  141.5991  164.9277 C.3     1  UNL1        0.0725
     25 C         137.7161  142.5395  164.2167 C.3     1  UNL1        0.0188
     26 C         138.3111  142.8521  162.8758 C.3     1  UNL1        0.0188
     27 C         139.6064  142.1050  162.7579 C.3     1  UNL1        0.0725
@<TRIPOS>BOND
     1     1     2    1
     2     2     4    1
     3     4     5   ar
     4     5     6   ar
     5     6     7   ar
     6     7     8   ar
     7     8     9   ar
     8     2    10    1
     9    10    11   ar
    10    11    12   ar
    11    12    13   ar
    12    13    14   ar
    13    14    15   ar
    14     2    16    1
    15    16    17    1
    16    17    18   ar
    17    18    19   ar
    18    19    20   ar
    19    20    21   ar
    20    21    22   ar
    21    16    23    1
    22    23    24    1
    23    24    25    1
    24    25    26    1
    25    26    27    1
    26     9     4   ar
    27    15    10   ar
    28    22    17   ar
    29    27    23    1
    30     1     3    1
@<TRIPOS>MOLECULE
*****
 27 30 0 0 0
SMALL
GASTEIGER

@<TRIPOS>ATOM
      1 O         139.5937  139.0667  164.9871 O.3     1  UNL1       -0.3768
      2 C         140.3328  140.3390  164.6959 C.3     1  UNL1        0.1456
      3 H         138.7567  139.0595  164.4970 H       1  UNL1        0.2112
      4 C         139.5599  140.4958  163.4199 C.ar    1  UNL1        0.0264
      5 C         140.2340  140.2597  162.1009 C.ar    1  UNL1        0.0015
      6 C         139.4611  140.4166  160.8250 C.ar    1  UNL1        0.0204
      7 C         138.0141  140.8096  160.8681 C.ar    1  UNL1        0.0989
      8 N         137.3401  141.0457  162.1871 N.ar    1  UNL1       -0.2426
      9 C         138.1129  140.8888  163.4630 C.ar    1  UNL1        0.0972
     10 C         141.1056  140.1821  165.9718 C.ar    1  UNL1        0.0264
     11 C         142.1905  139.1508  166.0696 C.ar    1  UNL1        0.0015
     12 C         142.9633  138.9939  167.3456 C.ar    1  UNL1        0.0204
     13 C         142.6514  139.8683  168.5238 C.ar    1  UNL1        0.0989
     14 N         141.5666  140.8996  168.4260 N.ar    1  UNL1       -0.2426
     15 C         140.7937  141.0565  167.1500 C.ar    1  UNL1        0.0972
     16 C         141.0719  141.6113  164.4047 C.3     1  UNL1        0.1130
     17 C         142.5551  141.5830  164.1822 C.ar    1  UNL1       -0.0049
     18 C         143.4439  142.5319  164.9302 C.ar    1  UNL1       -0.0029
     19 C         144.9270  142.5037  164.7078 C.ar    1  UNL1       -0.0003
     20 C         145.5214  141.5265  163.7372 C.ar    1  UNL1       -0.0000
     21 C         144.6326  140.5776  162.9891 C.ar    1  UNL1       -0.0003
     22 C         143.1494  140.6059  163.2116 C.ar    1  UNL1       -0.0029
     23 N         140.3279  142.9120  164.3359 N.3     1  UNL1       -0.2679
     24 C         139.5160  143.5227  165.4396 C.3     1  UNL1        0.0725
     25 C         138.9516  144.8184  164.9372 C.3     1  UNL1        0.0188
     26 C         139.4145  145.0085  163.5231 C.3     1  UNL1        0.0188
     27 C         140.2651  143.8303  163.1516 C.3     1  UNL1        0.0725
@<TRIPOS>BOND
     1     1     2    1
     2     2     4    1
     3     4     5   ar
     4     5     6   ar
     5     6     7   ar
     6     7     8   ar
     7     8     9   ar
     8     2    10    1
     9    10    11   ar
    10    11    12   ar
    11    12    13   ar
    12    13    14   ar
    13    14    15   ar
    14     2    16    1
    15    16    17    1
    16    17    18   ar
    17    18    19   ar
    18    19    20   ar
    19    20    21   ar
    20    21    22   ar
    21    16    23    1
    22    23    24    1
    23    24    25    1
    24    25    26    1
    25    26    27    1
    26     9     4   ar
    27    15    10   ar
    28    22    17   ar
    29    27    23    1
    30     1     3    1
