@<TRIPOS>MOLECULE
*****
 31 35 0 0 0
SMALL
GASTEIGER

@<TRIPOS>ATOM
      1 N         141.1153  139.5756  160.1118 N.ar    1  UNL1       -0.2526
      2 C         141.0551  141.0571  159.8849 C.ar    1  UNL1        0.2064
      3 N         140.8808  141.9876  161.0485 N.ar    1  UNL1       -0.1435
      4 N         140.7667  141.4364  162.4389 N.ar    1  UNL1       -0.2221
      5 C         140.5898  142.1026  163.7712 C.ar    1  UNL1        0.1006
      6 C         140.5405  141.0327  164.8214 C.ar    1  UNL1        0.0208
      7 C         140.6871  139.7054  164.1382 C.ar    1  UNL1        0.0256
      8 C         140.8269  139.9549  162.6657 C.ar    1  UNL1        0.1392
      9 C         141.0012  139.0245  161.5022 C.ar    1  UNL1        0.2837
     10 O         141.0613  137.5430  161.7290 O.2     1  UNL1       -0.2649
     11 C         140.3740  141.2517  166.2960 C.ar    1  UNL1        0.0016
     12 C         139.8548  140.1445  167.1647 C.ar    1  UNL1        0.0009
     13 C         139.6883  140.3636  168.6393 C.ar    1  UNL1        0.0114
     14 C         140.0410  141.6897  169.2451 C.ar    1  UNL1        0.0577
     15 CL        139.8745  141.9087  170.7197 Cl      1  UNL1       -0.0822
     16 C         140.5602  142.7968  168.3764 C.ar    1  UNL1        0.0114
     17 C         140.7267  142.5778  166.9018 C.ar    1  UNL1        0.0009
     18 C         141.6383  136.7842  156.6211 C.ar    1  UNL1        0.1318
     19 C         140.2990  137.4025  156.8928 C.ar    1  UNL1        0.0358
     20 C         140.1247  138.3330  158.0564 C.ar    1  UNL1        0.0221
     21 C         141.2896  138.6451  158.9482 C.ar    1  UNL1        0.0876
     22 C         142.6289  138.0268  158.6765 C.ar    1  UNL1        0.1179
     23 N         142.8033  137.0963  157.5130 N.ar    1  UNL1       -0.2276
     24 C         142.3104  133.8814  154.1337 C.3     1  UNL1        0.0758
     25 C         141.8516  134.9624  153.2005 C.3     1  UNL1        0.0389
     26 C         141.5440  136.1814  154.0187 C.3     1  UNL1        0.0936
     27 N         141.8127  135.8537  155.4576 N.pl3   1  UNL1       -0.2918
     28 C         142.2863  134.4322  155.5287 C.3     1  UNL1        0.1078
     29 C         143.4883  131.6371  154.7044 C.3     1  UNL1        0.0859
     30 N         142.7211  132.4932  153.7409 N.3     1  UNL1       -0.2960
     31 H         141.8657  131.9864  153.5133 H       1  UNL1        0.1233
@<TRIPOS>BOND
     1    29    30    1
     2    30    24    1
     3    24    25    1
     4    25    26    1
     5    26    27    1
     6    27    18    1
     7    18    19   ar
     8    19    20   ar
     9    20    21   ar
    10    21     1    1
    11     1     2   ar
    12     2     3   ar
    13     3     4   ar
    14     4     5   ar
    15     5     6   ar
    16     6    11    1
    17    11    12   ar
    18    12    13   ar
    19    13    14   ar
    20    14    15    1
    21    14    16   ar
    22    16    17   ar
    23     6     7   ar
    24     7     8   ar
    25     8     9   ar
    26     9    10    2
    27    21    22   ar
    28    22    23   ar
    29    27    28    1
    30    28    24    1
    31    23    18   ar
    32     9     1   ar
    33     8     4   ar
    34    17    11   ar
    35    30    31    1
@<TRIPOS>MOLECULE
*****
 31 35 0 0 0
SMALL
GASTEIGER

@<TRIPOS>ATOM
      1 N         142.2083  138.8903  157.6104 N.ar    1  UNL1       -0.2526
      2 C         141.9159  139.1874  156.1696 C.ar    1  UNL1        0.2064
      3 N         142.0785  138.1141  155.1344 N.ar    1  UNL1       -0.1435
      4 N         142.5337  136.7436  155.5402 N.ar    1  UNL1       -0.2221
      5 C         142.7825  135.4936  154.7493 C.ar    1  UNL1        0.1006
      6 C         143.2288  134.4239  155.7015 C.ar    1  UNL1        0.0208
      7 C         143.2558  135.0128  157.0808 C.ar    1  UNL1        0.0256
      8 C         142.8262  136.4465  156.9811 C.ar    1  UNL1        0.1392
      9 C         142.6635  137.5198  158.0162 C.ar    1  UNL1        0.2837
     10 O         142.9560  137.2227  159.4571 O.2     1  UNL1       -0.2649
     11 C         143.5855  133.0130  155.3381 C.ar    1  UNL1        0.0016
     12 C         142.9701  132.3711  154.1301 C.ar    1  UNL1        0.0009
     13 C         143.3269  130.9601  153.7668 C.ar    1  UNL1        0.0114
     14 C         144.2990  130.1910  154.6115 C.ar    1  UNL1        0.0577
     15 CL        144.6557  128.7801  154.2481 Cl      1  UNL1       -0.0822
     16 C         144.9145  130.8329  155.8194 C.ar    1  UNL1        0.0114
     17 C         144.5577  132.2439  156.1827 C.ar    1  UNL1        0.0009
     18 C         141.7202  142.1101  160.7160 C.ar    1  UNL1        0.1318
     19 C         143.0525  141.8956  160.0612 C.ar    1  UNL1        0.0358
     20 C         143.2152  140.8223  159.0259 C.ar    1  UNL1        0.0221
     21 C         142.0457  139.9636  158.6457 C.ar    1  UNL1        0.0876
     22 C         140.7133  140.1781  159.3005 C.ar    1  UNL1        0.1179
     23 N         140.5506  141.2514  160.3357 N.ar    1  UNL1       -0.2276
     24 C         140.5904  144.6351  163.4388 C.3     1  UNL1        0.0758
     25 C         142.0237  145.0349  163.2496 C.3     1  UNL1        0.0389
     26 C         142.6214  144.1377  162.2065 C.3     1  UNL1        0.0936
     27 N         141.5575  143.1834  161.7512 N.pl3   1  UNL1       -0.2918
     28 C         140.3023  143.4908  162.5128 C.3     1  UNL1        0.1078
     29 C         138.4136  144.5010  164.8507 C.3     1  UNL1        0.0859
     30 N         139.6164  145.2684  164.3875 N.3     1  UNL1       -0.2960
     31 H         140.1427  145.5234  165.2232 H       1  UNL1        0.1233
@<TRIPOS>BOND
     1    29    30    1
     2    30    24    1
     3    24    25    1
     4    25    26    1
     5    26    27    1
     6    27    18    1
     7    18    19   ar
     8    19    20   ar
     9    20    21   ar
    10    21     1    1
    11     1     2   ar
    12     2     3   ar
    13     3     4   ar
    14     4     5   ar
    15     5     6   ar
    16     6    11    1
    17    11    12   ar
    18    12    13   ar
    19    13    14   ar
    20    14    15    1
    21    14    16   ar
    22    16    17   ar
    23     6     7   ar
    24     7     8   ar
    25     8     9   ar
    26     9    10    2
    27    21    22   ar
    28    22    23   ar
    29    27    28    1
    30    28    24    1
    31    23    18   ar
    32     9     1   ar
    33     8     4   ar
    34    17    11   ar
    35    30    31    1
@<TRIPOS>MOLECULE
*****
 31 35 0 0 0
SMALL
GASTEIGER

@<TRIPOS>ATOM
      1 N         142.7177  140.9252  160.4066 N.ar    1  UNL1       -0.2526
      2 C         141.2360  140.8696  160.1803 C.ar    1  UNL1        0.2064
      3 N         140.3047  140.7101  161.3454 N.ar    1  UNL1       -0.1435
      4 N         140.8553  140.6063  162.7368 N.ar    1  UNL1       -0.2221
      5 C         140.1884  140.4446  164.0706 C.ar    1  UNL1        0.1006
      6 C         141.2581  140.4003  165.1213 C.ar    1  UNL1        0.0208
      7 C         142.5860  140.5346  164.4368 C.ar    1  UNL1        0.0256
      8 C         142.3371  140.6620  162.9631 C.ar    1  UNL1        0.1392
      9 C         143.2683  140.8214  161.7980 C.ar    1  UNL1        0.2837
     10 O         144.7501  140.8771  162.0243 O.2     1  UNL1       -0.2649
     11 C         141.0383  140.2483  166.5973 C.ar    1  UNL1        0.0016
     12 C         139.6677  140.4411  167.1753 C.ar    1  UNL1        0.0009
     13 C         139.4481  140.2891  168.6514 C.ar    1  UNL1        0.0114
     14 C         140.5990  139.9443  169.5494 C.ar    1  UNL1        0.0577
     15 CL        140.3793  139.7923  171.0254 Cl      1  UNL1       -0.0822
     16 C         141.9696  139.7514  168.9714 C.ar    1  UNL1        0.0114
     17 C         142.1893  139.9034  167.4953 C.ar    1  UNL1        0.0009
     18 C         145.5114  141.4035  156.9113 C.ar    1  UNL1        0.1318
     19 C         145.3292  142.5296  157.8853 C.ar    1  UNL1        0.0358
     20 C         144.3979  142.3701  159.0505 C.ar    1  UNL1        0.0221
     21 C         143.6490  141.0847  159.2415 C.ar    1  UNL1        0.0876
     22 C         143.8312  139.9586  158.2675 C.ar    1  UNL1        0.1179
     23 N         144.7624  140.1180  157.1024 N.ar    1  UNL1       -0.2276
     24 C         148.4241  142.0172  154.4203 C.3     1  UNL1        0.0758
     25 C         147.3272  141.5991  153.4865 C.3     1  UNL1        0.0389
     26 C         146.1026  141.3183  154.3060 C.3     1  UNL1        0.0936
     27 N         146.4426  141.5629  155.7463 N.pl3   1  UNL1       -0.2918
     28 C         147.8774  141.9948  155.8170 C.3     1  UNL1        0.1078
     29 C         150.9257  141.3808  154.1259 C.3     1  UNL1        0.0859
     30 N         149.8221  142.3919  154.0266 N.3     1  UNL1       -0.2960
     31 H         149.7835  142.6909  153.0522 H       1  UNL1        0.1233
@<TRIPOS>BOND
     1    29    30    1
     2    30    24    1
     3    24    25    1
     4    25    26    1
     5    26    27    1
     6    27    18    1
     7    18    19   ar
     8    19    20   ar
     9    20    21   ar
    10    21     1    1
    11     1     2   ar
    12     2     3   ar
    13     3     4   ar
    14     4     5   ar
    15     5     6   ar
    16     6    11    1
    17    11    12   ar
    18    12    13   ar
    19    13    14   ar
    20    14    15    1
    21    14    16   ar
    22    16    17   ar
    23     6     7   ar
    24     7     8   ar
    25     8     9   ar
    26     9    10    2
    27    21    22   ar
    28    22    23   ar
    29    27    28    1
    30    28    24    1
    31    23    18   ar
    32     9     1   ar
    33     8     4   ar
    34    17    11   ar
    35    30    31    1
@<TRIPOS>MOLECULE
*****
 31 35 0 0 0
SMALL
GASTEIGER

@<TRIPOS>ATOM
      1 N         140.0337  141.8068  160.3737 N.ar    1  UNL1       -0.2526
      2 C         141.4962  142.0440  160.1404 C.ar    1  UNL1        0.2064
      3 N         142.4162  142.2604  161.3054 N.ar    1  UNL1       -0.1435
      4 N         141.8734  142.2394  162.7036 N.ar    1  UNL1       -0.2221
      5 C         142.5324  142.4201  164.0388 C.ar    1  UNL1        0.1006
      6 C         141.4771  142.2944  165.0974 C.ar    1  UNL1        0.0208
      7 C         140.1658  142.0362  164.4163 C.ar    1  UNL1        0.0256
      8 C         140.4107  142.0022  162.9368 C.ar    1  UNL1        0.1392
      9 C         139.4909  141.7859  161.7719 C.ar    1  UNL1        0.2837
     10 O         138.0282  141.5486  162.0051 O.2     1  UNL1       -0.2649
     11 C         141.6947  142.4073  166.5772 C.ar    1  UNL1        0.0016
     12 C         140.5477  142.7533  167.4798 C.ar    1  UNL1        0.0009
     13 C         140.7655  142.8661  168.9596 C.ar    1  UNL1        0.0114
     14 C         142.1302  142.6329  169.5369 C.ar    1  UNL1        0.0577
     15 CL        142.3479  142.7457  171.0167 Cl      1  UNL1       -0.0822
     16 C         143.2772  142.2869  168.6343 C.ar    1  UNL1        0.0114
     17 C         143.0594  142.1741  167.1545 C.ar    1  UNL1        0.0009
     18 C         137.2740  141.1576  156.8790 C.ar    1  UNL1        0.1318
     19 C         137.5867  142.5507  157.3390 C.ar    1  UNL1        0.0358
     20 C         138.5066  142.7670  158.5039 C.ar    1  UNL1        0.0221
     21 C         139.1138  141.5904  159.2087 C.ar    1  UNL1        0.0876
     22 C         138.8011  140.1974  158.7487 C.ar    1  UNL1        0.1179
     23 N         137.8812  139.9810  157.5838 N.ar    1  UNL1       -0.2276
     24 C         134.4293  141.0572  154.2402 C.3     1  UNL1        0.0758
     25 C         135.4478  140.1592  153.6028 C.3     1  UNL1        0.0389
     26 C         136.6374  140.0875  154.5137 C.3     1  UNL1        0.0936
     27 N         136.3541  140.9412  155.7141 N.pl3   1  UNL1       -0.2918
     28 C         134.9895  141.5405  155.5450 C.3     1  UNL1        0.1078
     29 C         131.9274  141.6638  154.5901 C.3     1  UNL1        0.0859
     30 N         133.0865  141.4099  153.6724 N.3     1  UNL1       -0.2960
     31 H         133.2143  142.2567  153.1183 H       1  UNL1        0.1233
@<TRIPOS>BOND
     1    29    30    1
     2    30    24    1
     3    24    25    1
     4    25    26    1
     5    26    27    1
     6    27    18    1
     7    18    19   ar
     8    19    20   ar
     9    20    21   ar
    10    21     1    1
    11     1     2   ar
    12     2     3   ar
    13     3     4   ar
    14     4     5   ar
    15     5     6   ar
    16     6    11    1
    17    11    12   ar
    18    12    13   ar
    19    13    14   ar
    20    14    15    1
    21    14    16   ar
    22    16    17   ar
    23     6     7   ar
    24     7     8   ar
    25     8     9   ar
    26     9    10    2
    27    21    22   ar
    28    22    23   ar
    29    27    28    1
    30    28    24    1
    31    23    18   ar
    32     9     1   ar
    33     8     4   ar
    34    17    11   ar
    35    30    31    1
@<TRIPOS>MOLECULE
*****
 31 35 0 0 0
SMALL
GASTEIGER

@<TRIPOS>ATOM
      1 N         140.3562  142.5815  161.1572 N.ar    1  UNL1       -0.2526
      2 C         139.4971  141.6604  160.3427 C.ar    1  UNL1        0.2064
      3 N         139.0718  142.0580  158.9603 N.ar    1  UNL1       -0.1435
      4 N         139.5058  143.3767  158.3924 N.ar    1  UNL1       -0.2221
      5 C         139.2451  144.0345  157.0697 C.ar    1  UNL1        0.1006
      6 C         139.9431  145.3622  157.0668 C.ar    1  UNL1        0.0208
      7 C         140.6352  145.5250  158.3876 C.ar    1  UNL1        0.0256
      8 C         140.3649  144.2979  159.2069 C.ar    1  UNL1        0.1392
      9 C         140.7901  143.9002  160.5893 C.ar    1  UNL1        0.2837
     10 O         141.6493  144.8214  161.4038 O.2     1  UNL1       -0.2649
     11 C         139.9481  146.3532  155.9408 C.ar    1  UNL1        0.0016
     12 C         140.8210  146.1228  154.7429 C.ar    1  UNL1        0.0009
     13 C         140.8260  147.1139  153.6169 C.ar    1  UNL1        0.0114
     14 C         139.9582  148.3352  153.6887 C.ar    1  UNL1        0.0577
     15 CL        139.9632  149.3262  152.5627 Cl      1  UNL1       -0.0822
     16 C         139.0853  148.5656  154.8867 C.ar    1  UNL1        0.0114
     17 C         139.0803  147.5745  156.0127 C.ar    1  UNL1        0.0009
     18 C         141.6320  141.3886  165.3044 C.ar    1  UNL1        0.1318
     19 C         140.5852  142.4465  165.1170 C.ar    1  UNL1        0.0358
     20 C         140.1600  142.8441  163.7345 C.ar    1  UNL1        0.0221
     21 C         140.7814  142.1839  162.5397 C.ar    1  UNL1        0.0876
     22 C         141.8282  141.1260  162.7271 C.ar    1  UNL1        0.1179
     23 N         142.2535  140.7284  164.1095 N.ar    1  UNL1       -0.2276
     24 C         142.7703  141.1023  169.0041 C.3     1  UNL1        0.0758
     25 C         142.6532  139.6560  168.6241 C.3     1  UNL1        0.0389
     26 C         142.2125  139.5872  167.1919 C.3     1  UNL1        0.0936
     27 N         142.0573  140.9910  166.6868 N.pl3   1  UNL1       -0.2918
     28 C         142.4020  141.9274  167.8068 C.3     1  UNL1        0.1078
     29 C         143.0607  143.0954  170.6451 C.3     1  UNL1        0.0859
     30 N         143.1831  141.6307  170.3459 N.3     1  UNL1       -0.2960
     31 H         142.6209  141.1401  171.0413 H       1  UNL1        0.1233
@<TRIPOS>BOND
     1    29    30    1
     2    30    24    1
     3    24    25    1
     4    25    26    1
     5    26    27    1
     6    27    18    1
     7    18    19   ar
     8    19    20   ar
     9    20    21   ar
    10    21     1    1
    11     1     2   ar
    12     2     3   ar
    13     3     4   ar
    14     4     5   ar
    15     5     6   ar
    16     6    11    1
    17    11    12   ar
    18    12    13   ar
    19    13    14   ar
    20    14    15    1
    21    14    16   ar
    22    16    17   ar
    23     6     7   ar
    24     7     8   ar
    25     8     9   ar
    26     9    10    2
    27    21    22   ar
    28    22    23   ar
    29    27    28    1
    30    28    24    1
    31    23    18   ar
    32     9     1   ar
    33     8     4   ar
    34    17    11   ar
    35    30    31    1
@<TRIPOS>MOLECULE
*****
 31 35 0 0 0
SMALL
GASTEIGER

@<TRIPOS>ATOM
      1 N         139.4371  143.1689  160.7318 N.ar    1  UNL1       -0.2526
      2 C         138.0580  142.6068  160.9106 C.ar    1  UNL1        0.2064
      3 N         137.6268  142.0899  162.2512 N.ar    1  UNL1       -0.1435
      4 N         138.5747  142.1352  163.4127 N.ar    1  UNL1       -0.2221
      5 C         138.4323  141.7026  164.8419 C.ar    1  UNL1        0.1006
      6 C         139.7234  141.9973  165.5463 C.ar    1  UNL1        0.0208
      7 C         140.6638  142.6122  164.5525 C.ar    1  UNL1        0.0256
      8 C         139.9538  142.6974  163.2338 C.ar    1  UNL1        0.1392
      9 C         140.3850  143.2142  161.8933 C.ar    1  UNL1        0.2837
     10 O         141.7642  143.7764  161.7144 O.2     1  UNL1       -0.2649
     11 C         140.0217  141.7251  166.9909 C.ar    1  UNL1        0.0016
     12 C         140.5969  142.8079  167.8549 C.ar    1  UNL1        0.0009
     13 C         140.8952  142.5356  169.2995 C.ar    1  UNL1        0.0114
     14 C         140.6184  141.1805  169.8801 C.ar    1  UNL1        0.0577
     15 CL        140.9168  140.9083  171.3247 Cl      1  UNL1       -0.0822
     16 C         140.0433  140.0977  169.0161 C.ar    1  UNL1        0.0114
     17 C         139.7449  140.3700  167.5714 C.ar    1  UNL1        0.0009
     18 C         140.7308  144.7194  156.7102 C.ar    1  UNL1        0.1318
     19 C         140.5363  145.6707  157.8536 C.ar    1  UNL1        0.0358
     20 C         140.1050  145.1538  159.1941 C.ar    1  UNL1        0.0221
     21 C         139.8683  143.6858  159.3912 C.ar    1  UNL1        0.0876
     22 C         140.0629  142.7346  158.2479 C.ar    1  UNL1        0.1179
     23 N         140.4941  143.2514  156.9074 N.ar    1  UNL1       -0.2276
     24 C         141.1989  146.4411  153.2632 C.3     1  UNL1        0.0758
     25 C         142.4524  145.6220  153.3507 C.3     1  UNL1        0.0389
     26 C         142.4297  144.8773  154.6526 C.3     1  UNL1        0.0936
     27 N         141.1621  145.2362  155.3697 N.pl3   1  UNL1       -0.2918
     28 C         140.4014  146.2027  154.5110 C.3     1  UNL1        0.1078
     29 C         141.4756  148.6757  151.9673 C.3     1  UNL1        0.0859
     30 N         140.8110  147.3406  152.1273 N.3     1  UNL1       -0.2960
     31 H         140.9845  146.8204  151.2672 H       1  UNL1        0.1233
@<TRIPOS>BOND
     1    29    30    1
     2    30    24    1
     3    24    25    1
     4    25    26    1
     5    26    27    1
     6    27    18    1
     7    18    19   ar
     8    19    20   ar
     9    20    21   ar
    10    21     1    1
    11     1     2   ar
    12     2     3   ar
    13     3     4   ar
    14     4     5   ar
    15     5     6   ar
    16     6    11    1
    17    11    12   ar
    18    12    13   ar
    19    13    14   ar
    20    14    15    1
    21    14    16   ar
    22    16    17   ar
    23     6     7   ar
    24     7     8   ar
    25     8     9   ar
    26     9    10    2
    27    21    22   ar
    28    22    23   ar
    29    27    28    1
    30    28    24    1
    31    23    18   ar
    32     9     1   ar
    33     8     4   ar
    34    17    11   ar
    35    30    31    1
@<TRIPOS>MOLECULE
*****
 31 35 0 0 0
SMALL
GASTEIGER

@<TRIPOS>ATOM
      1 N         143.2192  139.9705  160.8518 N.ar    1  UNL1       -0.2526
      2 C         143.7637  141.0066  159.9138 C.ar    1  UNL1        0.2064
      3 N         143.8335  140.7237  158.4424 N.ar    1  UNL1       -0.1435
      4 N         143.3588  139.4045  157.9090 N.ar    1  UNL1       -0.2221
      5 C         143.3048  138.8451  156.5183 C.ar    1  UNL1        0.1006
      6 C         142.7268  137.4631  156.5968 C.ar    1  UNL1        0.0208
      7 C         142.4237  137.1685  158.0360 C.ar    1  UNL1        0.0256
      8 C         142.8143  138.3684  158.8470 C.ar    1  UNL1        0.1392
      9 C         142.7445  138.6514  160.3184 C.ar    1  UNL1        0.2837
     10 O         142.2000  137.6152  161.2564 O.2     1  UNL1       -0.2649
     11 C         142.4930  136.5381  155.4393 C.ar    1  UNL1        0.0016
     12 C         142.7069  135.0626  155.6034 C.ar    1  UNL1        0.0009
     13 C         142.4731  134.1376  154.4458 C.ar    1  UNL1        0.0114
     14 C         142.0254  134.6882  153.1243 C.ar    1  UNL1        0.0577
     15 CL        141.7916  133.7632  151.9668 Cl      1  UNL1       -0.0822
     16 C         141.8116  136.1638  152.9603 C.ar    1  UNL1        0.0114
     17 C         142.0454  137.0887  154.1178 C.ar    1  UNL1        0.0009
     18 C         143.0096  140.8193  165.2661 C.ar    1  UNL1        0.1318
     19 C         144.3010  140.3700  164.6493 C.ar    1  UNL1        0.0358
     20 C         144.3708  140.0871  163.1778 C.ar    1  UNL1        0.0221
     21 C         143.1494  140.2534  162.3233 C.ar    1  UNL1        0.0876
     22 C         141.8580  140.7027  162.9401 C.ar    1  UNL1        0.1179
     23 N         141.7881  140.9856  164.4115 N.ar    1  UNL1       -0.2276
     24 C         142.5621  140.8482  169.1215 C.3     1  UNL1        0.0758
     25 C         143.1023  142.2269  168.8820 C.3     1  UNL1        0.0389
     26 C         143.3357  142.3839  167.4086 C.3     1  UNL1        0.0936
     27 N         142.9397  141.1022  166.7375 N.pl3   1  UNL1       -0.2918
     28 C         142.4616  140.1531  167.7961 C.3     1  UNL1        0.1078
     29 C         141.0028  140.8034  171.1991 C.3     1  UNL1        0.0859
     30 N         142.1880  140.2668  170.4526 N.3     1  UNL1       -0.2960
     31 H         142.0157  139.2728  170.3018 H       1  UNL1        0.1233
@<TRIPOS>BOND
     1    29    30    1
     2    30    24    1
     3    24    25    1
     4    25    26    1
     5    26    27    1
     6    27    18    1
     7    18    19   ar
     8    19    20   ar
     9    20    21   ar
    10    21     1    1
    11     1     2   ar
    12     2     3   ar
    13     3     4   ar
    14     4     5   ar
    15     5     6   ar
    16     6    11    1
    17    11    12   ar
    18    12    13   ar
    19    13    14   ar
    20    14    15    1
    21    14    16   ar
    22    16    17   ar
    23     6     7   ar
    24     7     8   ar
    25     8     9   ar
    26     9    10    2
    27    21    22   ar
    28    22    23   ar
    29    27    28    1
    30    28    24    1
    31    23    18   ar
    32     9     1   ar
    33     8     4   ar
    34    17    11   ar
    35    30    31    1
@<TRIPOS>MOLECULE
*****
 31 35 0 0 0
SMALL
GASTEIGER

@<TRIPOS>ATOM
      1 N         138.9107  139.4260  160.9597 N.ar    1  UNL1       -0.2526
      2 C         138.7629  138.0231  161.4694 C.ar    1  UNL1        0.2064
      3 N         138.8842  137.7419  162.9379 N.ar    1  UNL1       -0.1435
      4 N         139.1533  138.8638  163.8965 N.ar    1  UNL1       -0.2221
      5 C         139.3219  138.8919  165.3867 C.ar    1  UNL1        0.1006
      6 C         139.5740  140.3122  165.7979 C.ar    1  UNL1        0.0208
      7 C         139.5611  141.1619  164.5619 C.ar    1  UNL1        0.0256
      8 C         139.3011  140.2668  163.3867 C.ar    1  UNL1        0.1392
      9 C         139.1798  140.5479  161.9183 C.ar    1  UNL1        0.2837
     10 O         139.3276  141.9508  161.4085 O.2     1  UNL1       -0.2649
     11 C         139.7993  140.7976  167.1992 C.ar    1  UNL1        0.0016
     12 C         140.4485  142.1289  167.4365 C.ar    1  UNL1        0.0009
     13 C         140.6738  142.6143  168.8378 C.ar    1  UNL1        0.0114
     14 C         140.2500  141.7684  170.0018 C.ar    1  UNL1        0.0577
     15 CL        140.4754  142.2538  171.4031 Cl      1  UNL1       -0.0822
     16 C         139.6009  140.4371  169.7646 C.ar    1  UNL1        0.0114
     17 C         139.3756  139.9518  168.3632 C.ar    1  UNL1        0.0009
     18 C         138.5468  140.2696  156.5544 C.ar    1  UNL1        0.1318
     19 C         139.8003  139.6510  157.0985 C.ar    1  UNL1        0.0358
     20 C         139.9216  139.3698  158.5670 C.ar    1  UNL1        0.0221
     21 C         138.7894  139.7072  159.4912 C.ar    1  UNL1        0.0876
     22 C         137.5359  140.3257  158.9471 C.ar    1  UNL1        0.1179
     23 N         137.4146  140.6069  157.4787 N.ar    1  UNL1       -0.2276
     24 C         137.8982  141.6340  152.9791 C.3     1  UNL1        0.0758
     25 C         138.5792  140.3329  152.6737 C.3     1  UNL1        0.0389
     26 C         138.9051  139.6634  153.9759 C.3     1  UNL1        0.0936
     27 N         138.4254  140.5508  155.0860 N.pl3   1  UNL1       -0.2918
     28 C         137.8032  141.7687  154.4700 C.3     1  UNL1        0.1078
     29 C         136.1762  143.4429  152.2634 C.3     1  UNL1        0.0859
     30 N         137.3998  142.6263  151.9706 N.3     1  UNL1       -0.2960
     31 H         138.1607  143.2850  151.8047 H       1  UNL1        0.1233
@<TRIPOS>BOND
     1    29    30    1
     2    30    24    1
     3    24    25    1
     4    25    26    1
     5    26    27    1
     6    27    18    1
     7    18    19   ar
     8    19    20   ar
     9    20    21   ar
    10    21     1    1
    11     1     2   ar
    12     2     3   ar
    13     3     4   ar
    14     4     5   ar
    15     5     6   ar
    16     6    11    1
    17    11    12   ar
    18    12    13   ar
    19    13    14   ar
    20    14    15    1
    21    14    16   ar
    22    16    17   ar
    23     6     7   ar
    24     7     8   ar
    25     8     9   ar
    26     9    10    2
    27    21    22   ar
    28    22    23   ar
    29    27    28    1
    30    28    24    1
    31    23    18   ar
    32     9     1   ar
    33     8     4   ar
    34    17    11   ar
    35    30    31    1
@<TRIPOS>MOLECULE
*****
 31 35 0 0 0
SMALL
GASTEIGER

@<TRIPOS>ATOM
      1 N         140.0349  138.8535  160.9623 N.ar    1  UNL1       -0.2526
      2 C         138.9243  137.9555  161.4203 C.ar    1  UNL1        0.2064
      3 N         138.4512  138.0133  162.8427 N.ar    1  UNL1       -0.1435
      4 N         139.0888  138.9692  163.8068 N.ar    1  UNL1       -0.2221
      5 C         138.8359  139.2483  165.2588 C.ar    1  UNL1        0.1006
      6 C         139.7903  140.3189  165.6980 C.ar    1  UNL1        0.0208
      7 C         140.6330  140.7015  164.5175 C.ar    1  UNL1        0.0256
      8 C         140.1995  139.8673  163.3487 C.ar    1  UNL1        0.1392
      9 C         140.6725  139.8095  161.9264 C.ar    1  UNL1        0.2837
     10 O         141.7832  140.7076  161.4683 O.2     1  UNL1       -0.2649
     11 C         139.8854  140.9043  167.0758 C.ar    1  UNL1        0.0016
     12 C         140.4341  142.2871  167.2670 C.ar    1  UNL1        0.0009
     13 C         140.5291  142.8724  168.6449 C.ar    1  UNL1        0.0114
     14 C         140.0754  142.0748  169.8315 C.ar    1  UNL1        0.0577
     15 CL        140.1704  142.6602  171.2093 Cl      1  UNL1       -0.0822
     16 C         139.5267  140.6920  169.6403 C.ar    1  UNL1        0.0114
     17 C         139.4317  140.1067  168.2624 C.ar    1  UNL1        0.0009
     18 C         141.4540  138.6802  156.6954 C.ar    1  UNL1        0.1318
     19 C         142.3910  138.3273  157.8123 C.ar    1  UNL1        0.0358
     20 C         141.9179  138.3851  159.2346 C.ar    1  UNL1        0.0221
     21 C         140.5080  138.7957  159.5399 C.ar    1  UNL1        0.0876
     22 C         139.5710  139.1486  158.4230 C.ar    1  UNL1        0.1179
     23 N         140.0440  139.0908  157.0007 N.ar    1  UNL1       -0.2276
     24 C         143.2706  138.9178  153.2736 C.3     1  UNL1        0.0758
     25 C         142.0392  138.1492  152.8953 C.3     1  UNL1        0.0389
     26 C         141.2088  137.9667  154.1311 C.3     1  UNL1        0.0936
     27 N         141.9270  138.6224  155.2731 N.pl3   1  UNL1       -0.2918
     28 C         143.2013  139.2102  154.7431 C.3     1  UNL1        0.1078
     29 C         145.4795  140.2135  152.8360 C.3     1  UNL1        0.0859
     30 N         144.3770  139.3227  152.3452 N.3     1  UNL1       -0.2960
     31 H         144.8170  138.4624  152.0185 H       1  UNL1        0.1233
@<TRIPOS>BOND
     1    29    30    1
     2    30    24    1
     3    24    25    1
     4    25    26    1
     5    26    27    1
     6    27    18    1
     7    18    19   ar
     8    19    20   ar
     9    20    21   ar
    10    21     1    1
    11     1     2   ar
    12     2     3   ar
    13     3     4   ar
    14     4     5   ar
    15     5     6   ar
    16     6    11    1
    17    11    12   ar
    18    12    13   ar
    19    13    14   ar
    20    14    15    1
    21    14    16   ar
    22    16    17   ar
    23     6     7   ar
    24     7     8   ar
    25     8     9   ar
    26     9    10    2
    27    21    22   ar
    28    22    23   ar
    29    27    28    1
    30    28    24    1
    31    23    18   ar
    32     9     1   ar
    33     8     4   ar
    34    17    11   ar
    35    30    31    1
