@<TRIPOS>MOLECULE
*****
 43 47 0 0 0
SMALL
GASTEIGER

@<TRIPOS>ATOM
      1 C         144.5871  140.8497  156.8689 C.3     1  UNL1        0.1534
      2 C         144.0439  141.2136  158.2189 C.3     1  UNL1        0.0469
      3 C         143.1274  140.1119  158.6622 C.3     1  UNL1        0.0798
      4 C         143.1042  139.0672  157.5861 C.3     1  UNL1        0.1101
      5 N         144.0063  139.5231  156.4778 N.am    1  UNL1       -0.2680
      6 C         144.2797  138.7826  155.2023 C.2     1  UNL1        0.2495
      7 O         145.2101  139.3663  154.1807 O.2     1  UNL1       -0.2699
      8 N         142.3676  140.0636  159.9546 N.3     1  UNL1       -0.2670
      9 C         142.5447  141.1533  160.9700 C.3     1  UNL1        0.0773
     10 C         141.7848  141.1049  162.2623 C.3     1  UNL1        0.0497
     11 C         140.8479  139.9667  162.5393 C.ar    1  UNL1        0.0473
     12 C         140.6708  138.8770  161.5240 C.ar    1  UNL1        0.0774
     13 N         139.7339  137.7388  161.8010 N.ar    1  UNL1       -0.2271
     14 C         138.9741  137.6904  163.0933 C.ar    1  UNL1        0.2012
     15 N         139.1511  138.7802  164.1088 N.ar    1  UNL1       -0.1896
     16 C         140.0880  139.9183  163.8318 C.ar    1  UNL1        0.2233
     17 C         141.4307  138.9254  160.2316 C.3     1  UNL1        0.1185
     18 O         140.2651  141.0081  164.8471 O.3     1  UNL1       -0.4600
     19 C         140.7477  140.6755  166.2279 C.3     1  UNL1        0.2118
     20 C         142.1538  140.1964  166.4359 C.3     1  UNL1        0.0737
     21 C         143.2629  140.7317  165.5795 C.ar    1  UNL1       -0.0184
     22 C         144.1082  139.7912  164.7727 C.ar    1  UNL1       -0.0041
     23 C         145.2173  140.3266  163.9164 C.ar    1  UNL1       -0.0003
     24 C         145.4810  141.8024  163.8668 C.ar    1  UNL1       -0.0000
     25 C         144.6358  142.7428  164.6736 C.ar    1  UNL1       -0.0003
     26 C         143.5266  142.2075  165.5300 C.ar    1  UNL1       -0.0041
     27 C         143.6227  137.4582  154.9484 C.ar    1  UNL1        0.0566
     28 C         142.4353  137.3728  154.0358 C.ar    1  UNL1        0.0044
     29 C         141.7783  136.0485  153.7819 C.ar    1  UNL1        0.0002
     30 C         142.3087  134.8096  154.4406 C.ar    1  UNL1        0.0274
     31 C         143.4961  134.8950  155.3532 C.ar    1  UNL1        0.1361
     32 C         144.1531  136.2193  155.6071 C.ar    1  UNL1        0.0411
     33 C         141.6517  133.4852  154.1867 C.3     1  UNL1        0.0952
     34 N         141.2388  132.6194  155.3399 N.3     1  UNL1       -0.3174
     35 H         142.0685  132.3047  155.8429 H       1  UNL1        0.1192
     36 H         140.7254  131.8101  154.9908 H       1  UNL1        0.1192
     37 O         144.0264  133.6562  156.0119 O.3     1  UNL1       -0.4717
     38 C         144.0601  133.5581  157.5083 C.3     1  UNL1        0.2525
     39 C         147.9436  142.0913  155.1535 C.3     1  UNL1        0.1107
     40 N         146.9875  141.2724  155.9692 N.am    1  UNL1       -0.3013
     41 C         145.5432  141.6686  156.0533 C.2     1  UNL1        0.2407
     42 O         145.0550  142.8837  155.3217 O.2     1  UNL1       -0.2733
     43 H         147.3079  140.4749  156.4493 H       1  UNL1        0.1495
@<TRIPOS>BOND
     1    39    40    1
     2    40    41   am
     3    41    42    2
     4     1    41    1
     5     1     2    1
     6     2     3    1
     7     3     8    1
     8     8     9    1
     9     9    10    1
    10    10    11    1
    11    11    12   ar
    12    12    13   ar
    13    13    14   ar
    14    14    15   ar
    15    15    16   ar
    16    16    18    1
    17    18    19    1
    18    19    20    1
    19    20    21    1
    20    21    22   ar
    21    22    23   ar
    22    23    24   ar
    23    24    25   ar
    24    25    26   ar
    25    12    17    1
    26     3     4    1
    27     4     5    1
    28     5     6   am
    29     6     7    2
    30     6    27    1
    31    27    28   ar
    32    28    29   ar
    33    29    30   ar
    34    30    33    1
    35    33    34    1
    36    30    31   ar
    37    31    37    1
    38    37    38    1
    39    31    32   ar
    40     5     1    1
    41    32    27   ar
    42    17     8    1
    43    16    11   ar
    44    26    21   ar
    45    40    43    1
    46    34    35    1
    47    34    36    1
@<TRIPOS>MOLECULE
*****
 43 47 0 0 0
SMALL
GASTEIGER

@<TRIPOS>ATOM
      1 C         143.8719  139.7145  157.4061 C.3     1  UNL1        0.1534
      2 C         143.5608  140.0521  158.8341 C.3     1  UNL1        0.0469
      3 C         142.8496  138.8803  159.4431 C.3     1  UNL1        0.0798
      4 C         142.7210  137.8184  158.3915 C.3     1  UNL1        0.1101
      5 N         143.3528  138.3339  157.1326 N.am    1  UNL1       -0.2680
      6 C         143.4488  137.5981  155.8289 C.2     1  UNL1        0.2495
      7 O         144.1127  138.2450  154.6496 O.2     1  UNL1       -0.2699
      8 N         142.3539  138.7868  160.8558 N.3     1  UNL1       -0.2670
      9 C         140.9374  138.3753  161.1279 C.3     1  UNL1        0.0773
     10 C         140.4418  138.2818  162.5406 C.3     1  UNL1        0.0497
     11 C         141.3627  138.5998  163.6811 C.ar    1  UNL1        0.0473
     12 C         142.7792  139.0112  163.4090 C.ar    1  UNL1        0.0774
     13 N         143.7002  139.3292  164.5495 N.ar    1  UNL1       -0.2271
     14 C         143.2045  139.2357  165.9621 C.ar    1  UNL1        0.2012
     15 N         141.7879  138.8242  166.2343 N.ar    1  UNL1       -0.1896
     16 C         140.8670  138.5063  165.0938 C.ar    1  UNL1        0.2233
     17 C         143.2748  139.1047  161.9964 C.3     1  UNL1        0.1185
     18 O         139.4505  138.0949  165.3659 O.3     1  UNL1       -0.4600
     19 C         138.4139  139.1340  165.6753 C.3     1  UNL1        0.2118
     20 C         138.0608  140.1699  164.6496 C.3     1  UNL1        0.0737
     21 C         138.4231  141.6072  164.8797 C.ar    1  UNL1       -0.0184
     22 C         137.5733  142.6974  164.2971 C.ar    1  UNL1       -0.0041
     23 C         137.9356  144.1347  164.5272 C.ar    1  UNL1       -0.0003
     24 C         139.1477  144.4818  165.3399 C.ar    1  UNL1       -0.0000
     25 C         139.9975  143.3916  165.9224 C.ar    1  UNL1       -0.0003
     26 C         139.6352  141.9543  165.6923 C.ar    1  UNL1       -0.0041
     27 C         142.8808  136.2154  155.7046 C.ar    1  UNL1        0.0566
     28 C         141.8254  135.9277  154.6783 C.ar    1  UNL1        0.0044
     29 C         141.2574  134.5450  154.5539 C.ar    1  UNL1        0.0002
     30 C         141.7448  133.4500  155.4559 C.ar    1  UNL1        0.0274
     31 C         142.8002  133.7377  156.4822 C.ar    1  UNL1        0.1361
     32 C         143.3682  135.1204  156.6065 C.ar    1  UNL1        0.0411
     33 C         141.1768  132.0672  155.3315 C.3     1  UNL1        0.0952
     34 N         142.0931  130.8801  155.2991 N.3     1  UNL1       -0.3174
     35 H         142.6579  130.9096  154.4502 H       1  UNL1        0.1192
     36 H         141.5399  130.0232  155.3098 H       1  UNL1        0.1192
     37 O         143.2876  132.6428  157.3840 O.3     1  UNL1       -0.4717
     38 C         144.7490  132.5279  157.7021 C.3     1  UNL1        0.2525
     39 C         146.7164  141.2219  155.0852 C.3     1  UNL1        0.1107
     40 N         146.0103  140.3348  156.0673 N.am    1  UNL1       -0.3013
     41 C         144.5780  140.6016  156.4240 C.2     1  UNL1        0.2407
     42 O         143.8517  141.7554  155.7986 O.2     1  UNL1       -0.2733
     43 H         146.4870  139.5775  156.4778 H       1  UNL1        0.1495
@<TRIPOS>BOND
     1    39    40    1
     2    40    41   am
     3    41    42    2
     4     1    41    1
     5     1     2    1
     6     2     3    1
     7     3     8    1
     8     8     9    1
     9     9    10    1
    10    10    11    1
    11    11    12   ar
    12    12    13   ar
    13    13    14   ar
    14    14    15   ar
    15    15    16   ar
    16    16    18    1
    17    18    19    1
    18    19    20    1
    19    20    21    1
    20    21    22   ar
    21    22    23   ar
    22    23    24   ar
    23    24    25   ar
    24    25    26   ar
    25    12    17    1
    26     3     4    1
    27     4     5    1
    28     5     6   am
    29     6     7    2
    30     6    27    1
    31    27    28   ar
    32    28    29   ar
    33    29    30   ar
    34    30    33    1
    35    33    34    1
    36    30    31   ar
    37    31    37    1
    38    37    38    1
    39    31    32   ar
    40     5     1    1
    41    32    27   ar
    42    17     8    1
    43    16    11   ar
    44    26    21   ar
    45    40    43    1
    46    34    35    1
    47    34    36    1
@<TRIPOS>MOLECULE
*****
 43 47 0 0 0
SMALL
GASTEIGER

@<TRIPOS>ATOM
      1 C         144.4645  140.8419  156.8514 C.3     1  UNL1        0.1534
      2 C         143.7988  141.2632  158.1279 C.3     1  UNL1        0.0469
      3 C         142.8251  140.1911  158.5187 C.3     1  UNL1        0.0798
      4 C         142.8891  139.1072  157.4838 C.3     1  UNL1        0.1101
      5 N         143.9022  139.5094  156.4533 N.am    1  UNL1       -0.2680
      6 C         144.2858  138.7180  155.2382 C.2     1  UNL1        0.2495
      7 O         145.3208  139.2508  154.2921 O.2     1  UNL1       -0.2699
      8 N         141.9425  140.2012  159.7315 N.3     1  UNL1       -0.2670
      9 C         141.4689  141.5044  160.3036 C.3     1  UNL1        0.0773
     10 C         140.5863  141.5145  161.5164 C.3     1  UNL1        0.0497
     11 C         140.1774  140.2213  162.1571 C.ar    1  UNL1        0.0473
     12 C         140.6510  138.9181  161.5851 C.ar    1  UNL1        0.0774
     13 N         140.2420  137.6250  162.2258 N.ar    1  UNL1       -0.2271
     14 C         139.3595  137.6350  163.4386 C.ar    1  UNL1        0.2012
     15 N         138.8858  138.9383  164.0107 N.ar    1  UNL1       -0.1896
     16 C         139.2947  140.2314  163.3700 C.ar    1  UNL1        0.2233
     17 C         141.5336  138.9081  160.3723 C.3     1  UNL1        0.1185
     18 O         138.8211  141.5346  163.9421 O.3     1  UNL1       -0.4600
     19 C         139.2694  141.9610  165.3086 C.3     1  UNL1        0.2118
     20 C         140.7267  141.9327  165.6626 C.3     1  UNL1        0.0737
     21 C         141.6591  142.9553  165.0839 C.ar    1  UNL1       -0.0184
     22 C         143.1427  142.7779  165.2167 C.ar    1  UNL1       -0.0041
     23 C         144.0750  143.8005  164.6379 C.ar    1  UNL1       -0.0003
     24 C         143.5238  145.0006  163.9265 C.ar    1  UNL1       -0.0000
     25 C         142.0403  145.1780  163.7938 C.ar    1  UNL1       -0.0003
     26 C         141.1079  144.1553  164.3725 C.ar    1  UNL1       -0.0041
     27 C         143.6344  137.3939  154.9690 C.ar    1  UNL1        0.0566
     28 C         142.4826  137.3055  154.0122 C.ar    1  UNL1        0.0044
     29 C         141.8312  135.9814  153.7431 C.ar    1  UNL1        0.0002
     30 C         142.3316  134.7458  154.4308 C.ar    1  UNL1        0.0274
     31 C         143.4835  134.8343  155.3876 C.ar    1  UNL1        0.1361
     32 C         144.1348  136.1583  155.6567 C.ar    1  UNL1        0.0411
     33 C         141.6802  133.4216  154.1616 C.3     1  UNL1        0.0952
     34 N         141.3074  132.5233  155.3036 N.3     1  UNL1       -0.3174
     35 H         142.1535  132.2044  155.7756 H       1  UNL1        0.1192
     36 H         140.7921  131.7178  154.9483 H       1  UNL1        0.1192
     37 O         143.9838  133.5987  156.0753 O.3     1  UNL1       -0.4717
     38 C         144.0187  133.5362  157.5735 C.3     1  UNL1        0.2525
     39 C         147.9784  141.9236  155.3575 C.3     1  UNL1        0.1107
     40 N         146.9340  141.1486  156.1047 N.am    1  UNL1       -0.3013
     41 C         145.5089  141.6170  156.1042 C.2     1  UNL1        0.2407
     42 O         145.1284  142.8604  155.3565 O.2     1  UNL1       -0.2733
     43 H         147.1837  140.3324  156.5955 H       1  UNL1        0.1495
@<TRIPOS>BOND
     1    39    40    1
     2    40    41   am
     3    41    42    2
     4     1    41    1
     5     1     2    1
     6     2     3    1
     7     3     8    1
     8     8     9    1
     9     9    10    1
    10    10    11    1
    11    11    12   ar
    12    12    13   ar
    13    13    14   ar
    14    14    15   ar
    15    15    16   ar
    16    16    18    1
    17    18    19    1
    18    19    20    1
    19    20    21    1
    20    21    22   ar
    21    22    23   ar
    22    23    24   ar
    23    24    25   ar
    24    25    26   ar
    25    12    17    1
    26     3     4    1
    27     4     5    1
    28     5     6   am
    29     6     7    2
    30     6    27    1
    31    27    28   ar
    32    28    29   ar
    33    29    30   ar
    34    30    33    1
    35    33    34    1
    36    30    31   ar
    37    31    37    1
    38    37    38    1
    39    31    32   ar
    40     5     1    1
    41    32    27   ar
    42    17     8    1
    43    16    11   ar
    44    26    21   ar
    45    40    43    1
    46    34    35    1
    47    34    36    1
@<TRIPOS>MOLECULE
*****
 43 47 0 0 0
SMALL
GASTEIGER

@<TRIPOS>ATOM
      1 C         142.5695  139.0281  155.8664 C.3     1  UNL1        0.1534
      2 C         142.7587  139.6522  157.2172 C.3     1  UNL1        0.0469
      3 C         142.9030  138.5479  158.2220 C.3     1  UNL1        0.0798
      4 C         142.8031  137.2412  157.4922 C.3     1  UNL1        0.1101
      5 N         142.5970  137.5380  156.0363 N.am    1  UNL1       -0.2680
      6 C         142.4450  136.5228  154.9425 C.2     1  UNL1        0.2495
      7 O         142.2441  136.9716  153.5254 O.2     1  UNL1       -0.2699
      8 N         143.1107  138.7200  159.6976 N.3     1  UNL1       -0.2670
      9 C         142.4227  137.8021  160.6640 C.3     1  UNL1        0.0773
     10 C         142.6305  137.9743  162.1394 C.3     1  UNL1        0.0497
     11 C         143.5263  139.0644  162.6485 C.ar    1  UNL1        0.0473
     12 C         144.2143  139.9824  161.6821 C.ar    1  UNL1        0.0774
     13 N         145.1101  141.0725  162.1912 N.ar    1  UNL1       -0.2271
     14 C         145.3179  141.2447  163.6667 C.ar    1  UNL1        0.2012
     15 N         144.6299  140.3267  164.6332 N.ar    1  UNL1       -0.1896
     16 C         143.7341  139.2366  164.1241 C.ar    1  UNL1        0.2233
     17 C         144.0065  139.8102  160.2066 C.3     1  UNL1        0.1185
     18 O         143.0461  138.3186  165.0905 O.3     1  UNL1       -0.4600
     19 C         142.1890  138.8858  166.1832 C.3     1  UNL1        0.2118
     20 C         140.9243  139.6163  165.8416 C.3     1  UNL1        0.0737
     21 C         140.1808  139.2805  164.5829 C.ar    1  UNL1       -0.0184
     22 C         140.0315  140.3104  163.5026 C.ar    1  UNL1       -0.0041
     23 C         139.2881  139.9746  162.2438 C.ar    1  UNL1       -0.0003
     24 C         138.6939  138.6088  162.0653 C.ar    1  UNL1       -0.0000
     25 C         138.8432  137.5790  163.1456 C.ar    1  UNL1       -0.0003
     26 C         139.5867  137.9148  164.4044 C.ar    1  UNL1       -0.0041
     27 C         142.4940  135.0589  155.2658 C.ar    1  UNL1        0.0566
     28 C         141.2650  134.2140  155.1059 C.ar    1  UNL1        0.0044
     29 C         141.3140  132.7501  155.4291 C.ar    1  UNL1        0.0002
     30 C         142.5920  132.1311  155.9123 C.ar    1  UNL1        0.0274
     31 C         143.8211  132.9760  156.0722 C.ar    1  UNL1        0.1361
     32 C         143.7721  134.4399  155.7489 C.ar    1  UNL1        0.0411
     33 C         142.6410  130.6671  156.2355 C.3     1  UNL1        0.0952
     34 N         141.7824  129.7016  155.4735 N.3     1  UNL1       -0.3174
     35 H         140.8000  129.8881  155.6749 H       1  UNL1        0.1192
     36 H         142.0119  128.7481  155.7538 H       1  UNL1        0.1192
     37 O         145.0991  132.3570  156.5553 O.3     1  UNL1       -0.4717
     38 C         145.4094  132.3256  158.0225 C.3     1  UNL1        0.2525
     39 C         143.2975  140.5049  152.2554 C.3     1  UNL1        0.1107
     40 N         143.4817  139.7684  153.5490 N.am    1  UNL1       -0.3013
     41 C         142.3853  139.7647  154.5727 C.2     1  UNL1        0.2407
     42 O         141.1047  140.4976  154.3028 O.2     1  UNL1       -0.2733
     43 H         144.3222  139.2873  153.7262 H       1  UNL1        0.1495
@<TRIPOS>BOND
     1    39    40    1
     2    40    41   am
     3    41    42    2
     4     1    41    1
     5     1     2    1
     6     2     3    1
     7     3     8    1
     8     8     9    1
     9     9    10    1
    10    10    11    1
    11    11    12   ar
    12    12    13   ar
    13    13    14   ar
    14    14    15   ar
    15    15    16   ar
    16    16    18    1
    17    18    19    1
    18    19    20    1
    19    20    21    1
    20    21    22   ar
    21    22    23   ar
    22    23    24   ar
    23    24    25   ar
    24    25    26   ar
    25    12    17    1
    26     3     4    1
    27     4     5    1
    28     5     6   am
    29     6     7    2
    30     6    27    1
    31    27    28   ar
    32    28    29   ar
    33    29    30   ar
    34    30    33    1
    35    33    34    1
    36    30    31   ar
    37    31    37    1
    38    37    38    1
    39    31    32   ar
    40     5     1    1
    41    32    27   ar
    42    17     8    1
    43    16    11   ar
    44    26    21   ar
    45    40    43    1
    46    34    35    1
    47    34    36    1
@<TRIPOS>MOLECULE
*****
 43 47 0 0 0
SMALL
GASTEIGER

@<TRIPOS>ATOM
      1 C         144.4491  141.5656  156.3511 C.3     1  UNL1        0.1534
      2 C         143.6363  142.3204  157.3609 C.3     1  UNL1        0.0469
      3 C         142.4926  141.4462  157.7824 C.3     1  UNL1        0.0798
      4 C         142.5984  140.1511  157.0331 C.3     1  UNL1        0.1101
      5 N         143.8076  140.2248  156.1485 N.am    1  UNL1       -0.2680
      6 C         144.2905  139.1471  155.2237 C.2     1  UNL1        0.2495
      7 O         145.5225  139.3652  154.3963 O.2     1  UNL1       -0.2699
      8 N         141.4296  141.8043  158.7783 N.3     1  UNL1       -0.2670
      9 C         141.1236  143.2448  159.0634 C.3     1  UNL1        0.0773
     10 C         140.0606  143.6028  160.0593 C.3     1  UNL1        0.0497
     11 C         139.3037  142.5203  160.7702 C.ar    1  UNL1        0.0473
     12 C         139.6097  141.0799  160.4851 C.ar    1  UNL1        0.0774
     13 N         138.8527  139.9974  161.1959 N.ar    1  UNL1       -0.2271
     14 C         137.7897  140.3554  162.1919 C.ar    1  UNL1        0.2012
     15 N         137.4837  141.7960  162.4770 N.ar    1  UNL1       -0.1896
     16 C         138.2407  142.8785  161.7661 C.ar    1  UNL1        0.2233
     17 C         140.6726  140.7218  159.4892 C.3     1  UNL1        0.1185
     18 O         137.9347  144.3189  162.0512 O.3     1  UNL1       -0.4600
     19 C         138.8961  145.1455  162.8528 C.3     1  UNL1        0.2118
     20 C         139.4504  144.6129  164.1407 C.3     1  UNL1        0.0737
     21 C         140.9203  144.3429  164.2699 C.ar    1  UNL1       -0.0184
     22 C         141.9139  145.3211  163.7167 C.ar    1  UNL1       -0.0041
     23 C         143.3837  145.0512  163.8459 C.ar    1  UNL1       -0.0003
     24 C         143.8600  143.8031  164.5282 C.ar    1  UNL1       -0.0000
     25 C         142.8664  142.8250  165.0814 C.ar    1  UNL1       -0.0003
     26 C         141.3965  143.0949  164.9522 C.ar    1  UNL1       -0.0041
     27 C         143.5415  137.8512  155.1263 C.ar    1  UNL1        0.0566
     28 C         142.1963  137.8104  154.4640 C.ar    1  UNL1        0.0044
     29 C         141.4472  136.5145  154.3666 C.ar    1  UNL1        0.0002
     30 C         142.0434  135.2593  154.9315 C.ar    1  UNL1        0.0274
     31 C         143.3887  135.3001  155.5938 C.ar    1  UNL1        0.1361
     32 C         144.1377  136.5960  155.6912 C.ar    1  UNL1        0.0411
     33 C         141.2943  133.9633  154.8340 C.3     1  UNL1        0.0952
     34 N         141.9906  132.7298  154.3405 N.3     1  UNL1       -0.3174
     35 H         142.2468  132.8530  153.3609 H       1  UNL1        0.1192
     36 H         141.3666  131.9281  154.4306 H       1  UNL1        0.1192
     37 O         143.9848  134.0450  156.1587 O.3     1  UNL1       -0.4717
     38 C         143.8398  133.7372  157.6196 C.3     1  UNL1        0.2525
     39 C         148.2626  141.9918  155.3386 C.3     1  UNL1        0.1107
     40 N         147.0256  141.4934  156.0252 N.am    1  UNL1       -0.3013
     41 C         145.6861  142.0639  155.6645 C.2     1  UNL1        0.2407
     42 O         145.5835  143.1328  154.6171 O.2     1  UNL1       -0.2733
     43 H         147.0930  140.7919  156.7127 H       1  UNL1        0.1495
@<TRIPOS>BOND
     1    39    40    1
     2    40    41   am
     3    41    42    2
     4     1    41    1
     5     1     2    1
     6     2     3    1
     7     3     8    1
     8     8     9    1
     9     9    10    1
    10    10    11    1
    11    11    12   ar
    12    12    13   ar
    13    13    14   ar
    14    14    15   ar
    15    15    16   ar
    16    16    18    1
    17    18    19    1
    18    19    20    1
    19    20    21    1
    20    21    22   ar
    21    22    23   ar
    22    23    24   ar
    23    24    25   ar
    24    25    26   ar
    25    12    17    1
    26     3     4    1
    27     4     5    1
    28     5     6   am
    29     6     7    2
    30     6    27    1
    31    27    28   ar
    32    28    29   ar
    33    29    30   ar
    34    30    33    1
    35    33    34    1
    36    30    31   ar
    37    31    37    1
    38    37    38    1
    39    31    32   ar
    40     5     1    1
    41    32    27   ar
    42    17     8    1
    43    16    11   ar
    44    26    21   ar
    45    40    43    1
    46    34    35    1
    47    34    36    1
@<TRIPOS>MOLECULE
*****
 43 47 0 0 0
SMALL
GASTEIGER

@<TRIPOS>ATOM
      1 C         139.6338  146.0505  156.9077 C.3     1  UNL1        0.1534
      2 C         140.3555  145.8175  158.2018 C.3     1  UNL1        0.0469
      3 C         140.2242  144.3646  158.5507 C.3     1  UNL1        0.0798
      4 C         139.4213  143.6996  157.4722 C.3     1  UNL1        0.1101
      5 N         139.0564  144.7415  156.4568 N.am    1  UNL1       -0.2680
      6 C         138.2549  144.5144  155.2094 C.2     1  UNL1        0.2495
      7 O         137.9678  145.6591  154.2835 O.2     1  UNL1       -0.2699
      8 N         140.7956  143.6943  159.7650 N.3     1  UNL1       -0.2670
      9 C         139.9798  142.6864  160.5190 C.3     1  UNL1        0.0773
     10 C         140.5511  142.0162  161.7332 C.3     1  UNL1        0.0497
     11 C         141.9382  142.3539  162.1934 C.ar    1  UNL1        0.0473
     12 C         142.7540  143.3618  161.4394 C.ar    1  UNL1        0.0774
     13 N         144.1412  143.6994  161.8996 N.ar    1  UNL1       -0.2271
     14 C         144.7125  143.0292  163.1138 C.ar    1  UNL1        0.2012
     15 N         143.8967  142.0213  163.8679 N.ar    1  UNL1       -0.1896
     16 C         142.5096  141.6836  163.4077 C.ar    1  UNL1        0.2233
     17 C         142.1827  144.0320  160.2252 C.3     1  UNL1        0.1185
     18 O         141.6938  140.6757  164.1616 O.3     1  UNL1       -0.4600
     19 C         141.5548  140.7862  165.6512 C.3     1  UNL1        0.2118
     20 C         140.5227  141.7001  166.2424 C.3     1  UNL1        0.0737
     21 C         139.6215  142.4943  165.3441 C.ar    1  UNL1       -0.0184
     22 C         139.9331  143.9318  165.0499 C.ar    1  UNL1       -0.0041
     23 C         139.0318  144.7260  164.1516 C.ar    1  UNL1       -0.0003
     24 C         137.8189  144.0827  163.5475 C.ar    1  UNL1       -0.0000
     25 C         137.5073  142.6453  163.8415 C.ar    1  UNL1       -0.0003
     26 C         138.4086  141.8510  164.7399 C.ar    1  UNL1       -0.0041
     27 C         137.7404  143.1426  154.8878 C.ar    1  UNL1        0.0566
     28 C         138.4856  142.2694  153.9224 C.ar    1  UNL1        0.0044
     29 C         137.9712  140.8975  153.6009 C.ar    1  UNL1        0.0002
     30 C         136.7115  140.3990  154.2448 C.ar    1  UNL1        0.0274
     31 C         135.9662  141.2722  155.2102 C.ar    1  UNL1        0.1361
     32 C         136.4807  142.6440  155.5317 C.ar    1  UNL1        0.0411
     33 C         136.1970  139.0271  153.9232 C.3     1  UNL1        0.0952
     34 N         135.5724  138.1890  154.9991 N.3     1  UNL1       -0.3174
     35 H         136.2781  137.9479  155.6950 H       1  UNL1        0.1192
     36 H         135.1941  137.3353  154.5886 H       1  UNL1        0.1192
     37 O         134.7066  140.7737  155.8540 O.3     1  UNL1       -0.4717
     38 C         133.3719  141.2270  155.3412 C.3     1  UNL1        0.2525
     39 C         138.4665  149.7334  156.0002 C.3     1  UNL1        0.1107
     40 N         138.5893  148.4218  156.7175 N.am    1  UNL1       -0.3013
     41 C         139.5109  147.3622  156.1904 C.2     1  UNL1        0.2407
     42 O         140.3097  147.6142  154.9461 O.2     1  UNL1       -0.2733
     43 H         138.0651  148.2564  157.5342 H       1  UNL1        0.1495
@<TRIPOS>BOND
     1    39    40    1
     2    40    41   am
     3    41    42    2
     4     1    41    1
     5     1     2    1
     6     2     3    1
     7     3     8    1
     8     8     9    1
     9     9    10    1
    10    10    11    1
    11    11    12   ar
    12    12    13   ar
    13    13    14   ar
    14    14    15   ar
    15    15    16   ar
    16    16    18    1
    17    18    19    1
    18    19    20    1
    19    20    21    1
    20    21    22   ar
    21    22    23   ar
    22    23    24   ar
    23    24    25   ar
    24    25    26   ar
    25    12    17    1
    26     3     4    1
    27     4     5    1
    28     5     6   am
    29     6     7    2
    30     6    27    1
    31    27    28   ar
    32    28    29   ar
    33    29    30   ar
    34    30    33    1
    35    33    34    1
    36    30    31   ar
    37    31    37    1
    38    37    38    1
    39    31    32   ar
    40     5     1    1
    41    32    27   ar
    42    17     8    1
    43    16    11   ar
    44    26    21   ar
    45    40    43    1
    46    34    35    1
    47    34    36    1
@<TRIPOS>MOLECULE
*****
 43 47 0 0 0
SMALL
GASTEIGER

@<TRIPOS>ATOM
      1 C         143.0894  139.4102  156.7686 C.3     1  UNL1        0.1534
      2 C         142.9104  139.8332  158.1966 C.3     1  UNL1        0.0469
      3 C         142.6275  138.6061  159.0116 C.3     1  UNL1        0.0798
      4 C         142.6317  137.4247  158.0873 C.3     1  UNL1        0.1101
      5 N         142.9172  137.9216  156.7011 N.am    1  UNL1       -0.2680
      6 C         143.0135  137.0780  155.4645 C.2     1  UNL1        0.2495
      7 O         143.3066  137.7189  154.1404 O.2     1  UNL1       -0.2699
      8 N         142.3833  138.5673  160.4911 N.3     1  UNL1       -0.2670
      9 C         141.0071  138.2857  161.0170 C.3     1  UNL1        0.0773
     10 C         140.7630  138.2469  162.4964 C.3     1  UNL1        0.0497
     11 C         141.8951  138.4897  163.4500 C.ar    1  UNL1        0.0473
     12 C         143.2713  138.7712  162.9242 C.ar    1  UNL1        0.0774
     13 N         144.4035  139.0140  163.8777 N.ar    1  UNL1       -0.2271
     14 C         144.1593  138.9752  165.3572 C.ar    1  UNL1        0.2012
     15 N         142.7830  138.6936  165.8831 N.ar    1  UNL1       -0.1896
     16 C         141.6509  138.4508  164.9295 C.ar    1  UNL1        0.2233
     17 C         143.5155  138.8100  161.4447 C.3     1  UNL1        0.1185
     18 O         140.2746  138.1693  165.4554 O.3     1  UNL1       -0.4600
     19 C         139.2972  139.2924  165.6380 C.3     1  UNL1        0.2118
     20 C         139.7934  140.6832  165.9010 C.3     1  UNL1        0.0737
     21 C         139.9138  141.1826  167.3102 C.ar    1  UNL1       -0.0184
     22 C         139.5375  140.2913  168.4566 C.ar    1  UNL1       -0.0041
     23 C         139.6579  140.7907  169.8658 C.ar    1  UNL1       -0.0003
     24 C         140.1547  142.1814  170.1289 C.ar    1  UNL1       -0.0000
     25 C         140.5310  143.0727  168.9826 C.ar    1  UNL1       -0.0003
     26 C         140.4106  142.5733  167.5733 C.ar    1  UNL1       -0.0041
     27 C         142.8166  135.5936  155.5520 C.ar    1  UNL1        0.0566
     28 C         141.4746  134.9959  155.2492 C.ar    1  UNL1        0.0044
     29 C         141.2778  133.5115  155.3367 C.ar    1  UNL1        0.0002
     30 C         142.4230  132.6247  155.7270 C.ar    1  UNL1        0.0274
     31 C         143.7650  133.2225  156.0298 C.ar    1  UNL1        0.1361
     32 C         143.9618  134.7069  155.9423 C.ar    1  UNL1        0.0411
     33 C         142.2261  131.1402  155.8145 C.3     1  UNL1        0.0952
     34 N         143.2854  130.2115  155.2995 N.3     1  UNL1       -0.3174
     35 H         143.3646  130.3138  154.2877 H       1  UNL1        0.1192
     36 H         143.0331  129.2493  155.5252 H       1  UNL1        0.1192
     37 O         144.9101  132.3358  156.4201 O.3     1  UNL1       -0.4717
     38 C         145.3101  132.2179  157.8610 C.3     1  UNL1        0.2525
     39 C         142.6044  141.5730  153.4767 C.3     1  UNL1        0.1107
     40 N         142.3056  140.6666  154.6339 N.am    1  UNL1       -0.3013
     41 C         143.3882  140.3165  155.6114 C.2     1  UNL1        0.2407
     42 O         144.7696  140.8728  155.4317 O.2     1  UNL1       -0.2733
     43 H         141.3990  140.3015  154.7519 H       1  UNL1        0.1495
@<TRIPOS>BOND
     1    39    40    1
     2    40    41   am
     3    41    42    2
     4     1    41    1
     5     1     2    1
     6     2     3    1
     7     3     8    1
     8     8     9    1
     9     9    10    1
    10    10    11    1
    11    11    12   ar
    12    12    13   ar
    13    13    14   ar
    14    14    15   ar
    15    15    16   ar
    16    16    18    1
    17    18    19    1
    18    19    20    1
    19    20    21    1
    20    21    22   ar
    21    22    23   ar
    22    23    24   ar
    23    24    25   ar
    24    25    26   ar
    25    12    17    1
    26     3     4    1
    27     4     5    1
    28     5     6   am
    29     6     7    2
    30     6    27    1
    31    27    28   ar
    32    28    29   ar
    33    29    30   ar
    34    30    33    1
    35    33    34    1
    36    30    31   ar
    37    31    37    1
    38    37    38    1
    39    31    32   ar
    40     5     1    1
    41    32    27   ar
    42    17     8    1
    43    16    11   ar
    44    26    21   ar
    45    40    43    1
    46    34    35    1
    47    34    36    1
@<TRIPOS>MOLECULE
*****
 43 47 0 0 0
SMALL
GASTEIGER

@<TRIPOS>ATOM
      1 C         144.5491  140.8998  156.7555 C.3     1  UNL1        0.1534
      2 C         144.3017  141.3735  158.1571 C.3     1  UNL1        0.0469
      3 C         143.5297  140.3079  158.8771 C.3     1  UNL1        0.0798
      4 C         143.2999  139.1756  157.9205 C.3     1  UNL1        0.1101
      5 N         143.9299  139.5413  156.6093 N.am    1  UNL1       -0.2680
      6 C         143.9392  138.6970  155.3696 C.2     1  UNL1        0.2495
      7 O         144.6124  139.1976  154.1262 O.2     1  UNL1       -0.2699
      8 N         143.0684  140.3647  160.3033 N.3     1  UNL1       -0.2670
      9 C         141.8126  141.1052  160.6565 C.3     1  UNL1        0.0773
     10 C         141.3514  141.1619  162.0827 C.3     1  UNL1        0.0497
     11 C         142.1459  140.4782  163.1557 C.ar    1  UNL1        0.0473
     12 C         143.4017  139.7378  162.8025 C.ar    1  UNL1        0.0774
     13 N         144.1962  139.0541  163.8755 N.ar    1  UNL1       -0.2271
     14 C         143.7349  139.1108  165.3016 C.ar    1  UNL1        0.2012
     15 N         142.4791  139.8513  165.6549 N.ar    1  UNL1       -0.1896
     16 C         141.6846  140.5350  164.5819 C.ar    1  UNL1        0.2233
     17 C         143.8629  139.6810  161.3763 C.3     1  UNL1        0.1185
     18 O         140.4289  141.2755  164.9351 O.3     1  UNL1       -0.4600
     19 C         139.3692  140.6051  165.7583 C.3     1  UNL1        0.2118
     20 C         138.4371  139.6177  165.1209 C.3     1  UNL1        0.0737
     21 C         138.4032  139.4740  163.6282 C.ar    1  UNL1       -0.0184
     22 C         139.0462  138.2870  162.9742 C.ar    1  UNL1       -0.0041
     23 C         139.0122  138.1433  161.4815 C.ar    1  UNL1       -0.0003
     24 C         138.3354  139.1865  160.6428 C.ar    1  UNL1       -0.0000
     25 C         137.6924  140.3735  161.2967 C.ar    1  UNL1       -0.0003
     26 C         137.7263  140.5172  162.7895 C.ar    1  UNL1       -0.0041
     27 C         143.2752  137.3520  155.3733 C.ar    1  UNL1        0.0566
     28 C         141.8296  137.2282  154.9924 C.ar    1  UNL1        0.0044
     29 C         141.1656  135.8832  154.9961 C.ar    1  UNL1        0.0002
     30 C         141.9472  134.6619  155.3806 C.ar    1  UNL1        0.0274
     31 C         143.3927  134.7857  155.7615 C.ar    1  UNL1        0.1361
     32 C         144.0567  136.1307  155.7578 C.ar    1  UNL1        0.0411
     33 C         141.2831  133.3169  155.3843 C.3     1  UNL1        0.0952
     34 N         141.9696  132.1398  154.7573 N.3     1  UNL1       -0.3174
     35 H         142.0486  132.2884  153.7513 H       1  UNL1        0.1192
     36 H         141.4261  131.2951  154.9346 H       1  UNL1        0.1192
     37 O         144.1742  133.5646  156.1460 O.3     1  UNL1       -0.4717
     38 C         144.3028  133.1804  157.5903 C.3     1  UNL1        0.2525
     39 C         147.3877  141.9533  154.1899 C.3     1  UNL1        0.1107
     40 N         146.6506  141.2008  155.2578 N.am    1  UNL1       -0.3013
     41 C         145.2862  141.6523  155.6876 C.2     1  UNL1        0.2407
     42 O         144.6590  142.8563  155.0497 O.2     1  UNL1       -0.2733
     43 H         147.0622  140.4106  155.6765 H       1  UNL1        0.1495
@<TRIPOS>BOND
     1    39    40    1
     2    40    41   am
     3    41    42    2
     4     1    41    1
     5     1     2    1
     6     2     3    1
     7     3     8    1
     8     8     9    1
     9     9    10    1
    10    10    11    1
    11    11    12   ar
    12    12    13   ar
    13    13    14   ar
    14    14    15   ar
    15    15    16   ar
    16    16    18    1
    17    18    19    1
    18    19    20    1
    19    20    21    1
    20    21    22   ar
    21    22    23   ar
    22    23    24   ar
    23    24    25   ar
    24    25    26   ar
    25    12    17    1
    26     3     4    1
    27     4     5    1
    28     5     6   am
    29     6     7    2
    30     6    27    1
    31    27    28   ar
    32    28    29   ar
    33    29    30   ar
    34    30    33    1
    35    33    34    1
    36    30    31   ar
    37    31    37    1
    38    37    38    1
    39    31    32   ar
    40     5     1    1
    41    32    27   ar
    42    17     8    1
    43    16    11   ar
    44    26    21   ar
    45    40    43    1
    46    34    35    1
    47    34    36    1
@<TRIPOS>MOLECULE
*****
 43 47 0 0 0
SMALL
GASTEIGER

@<TRIPOS>ATOM
      1 C         144.4138  140.5826  156.9705 C.3     1  UNL1        0.1534
      2 C         144.0002  140.8142  158.3936 C.3     1  UNL1        0.0469
      3 C         143.2072  139.6239  158.8455 C.3     1  UNL1        0.0798
      4 C         143.1307  138.6565  157.7017 C.3     1  UNL1        0.1101
      5 N         143.8764  139.2490  156.5429 N.am    1  UNL1       -0.2680
      6 C         144.0536  138.6187  155.1933 C.2     1  UNL1        0.2495
      7 O         144.8289  139.3344  154.1272 O.2     1  UNL1       -0.2699
      8 N         142.5977  139.4342  160.2030 N.3     1  UNL1       -0.2670
      9 C         143.3268  139.9077  161.4253 C.3     1  UNL1        0.0773
     10 C         142.7173  139.7180  162.7826 C.3     1  UNL1        0.0497
     11 C         141.3787  139.0548  162.9177 C.ar    1  UNL1        0.0473
     12 C         140.6496  138.5812  161.6954 C.ar    1  UNL1        0.0774
     13 N         139.3110  137.9180  161.8304 N.ar    1  UNL1       -0.2271
     14 C         138.7015  137.7282  163.1878 C.ar    1  UNL1        0.2012
     15 N         139.4306  138.2018  164.4102 N.ar    1  UNL1       -0.1896
     16 C         140.7692  138.8651  164.2751 C.ar    1  UNL1        0.2233
     17 C         141.2591  138.7709  160.3380 C.3     1  UNL1        0.1185
     18 O         141.4983  139.3386  165.4975 O.3     1  UNL1       -0.4600
     19 C         141.3342  140.7536  165.9675 C.3     1  UNL1        0.2118
     20 C         139.9734  141.2710  166.3284 C.3     1  UNL1        0.0737
     21 C         139.2719  142.2351  165.4182 C.ar    1  UNL1       -0.0184
     22 C         138.3166  141.7264  164.3795 C.ar    1  UNL1       -0.0041
     23 C         137.6152  142.6904  163.4693 C.ar    1  UNL1       -0.0003
     24 C         137.8690  144.1632  163.5976 C.ar    1  UNL1       -0.0000
     25 C         138.8243  144.6719  164.6362 C.ar    1  UNL1       -0.0003
     26 C         139.5258  143.7079  165.5465 C.ar    1  UNL1       -0.0041
     27 C         143.4554  137.2727  154.9098 C.ar    1  UNL1        0.0566
     28 C         142.3320  137.1437  153.9243 C.ar    1  UNL1        0.0044
     29 C         141.7338  135.7977  153.6409 C.ar    1  UNL1        0.0002
     30 C         142.2591  134.5806  154.3430 C.ar    1  UNL1        0.0274
     31 C         143.3825  134.7096  155.3285 C.ar    1  UNL1        0.1361
     32 C         143.9807  136.0556  155.6119 C.ar    1  UNL1        0.0411
     33 C         141.6609  133.2345  154.0595 C.3     1  UNL1        0.0952
     34 N         141.4248  132.2673  155.1814 N.3     1  UNL1       -0.3174
     35 H         142.3203  131.9769  155.5740 H       1  UNL1        0.1192
     36 H         140.9278  131.4501  154.8270 H       1  UNL1        0.1192
     37 O         143.9078  133.4926  156.0305 O.3     1  UNL1       -0.4717
     38 C         144.1564  133.5285  157.5093 C.3     1  UNL1        0.2525
     39 C         145.4041  143.1278  154.0911 C.3     1  UNL1        0.1107
     40 N         144.5951  142.1905  154.9379 N.am    1  UNL1       -0.3013
     41 C         145.2228  141.5199  156.1237 C.2     1  UNL1        0.2407
     42 O         146.6594  141.7866  156.4629 O.2     1  UNL1       -0.2733
     43 H         143.6522  142.0155  154.7153 H       1  UNL1        0.1495
@<TRIPOS>BOND
     1    39    40    1
     2    40    41   am
     3    41    42    2
     4     1    41    1
     5     1     2    1
     6     2     3    1
     7     3     8    1
     8     8     9    1
     9     9    10    1
    10    10    11    1
    11    11    12   ar
    12    12    13   ar
    13    13    14   ar
    14    14    15   ar
    15    15    16   ar
    16    16    18    1
    17    18    19    1
    18    19    20    1
    19    20    21    1
    20    21    22   ar
    21    22    23   ar
    22    23    24   ar
    23    24    25   ar
    24    25    26   ar
    25    12    17    1
    26     3     4    1
    27     4     5    1
    28     5     6   am
    29     6     7    2
    30     6    27    1
    31    27    28   ar
    32    28    29   ar
    33    29    30   ar
    34    30    33    1
    35    33    34    1
    36    30    31   ar
    37    31    37    1
    38    37    38    1
    39    31    32   ar
    40     5     1    1
    41    32    27   ar
    42    17     8    1
    43    16    11   ar
    44    26    21   ar
    45    40    43    1
    46    34    35    1
    47    34    36    1
