@<TRIPOS>MOLECULE
*****
 48 52 0 0 0
SMALL
GASTEIGER

@<TRIPOS>ATOM
      1 C         140.2857  145.4411  157.8592 C.ar    1  UNL1        0.3198
      2 N         139.6118  144.1948  157.3668 N.ar    1  UNL1       -0.1927
      3 C         139.8597  142.8857  158.0560 C.ar    1  UNL1        0.1049
      4 C         140.7815  142.8230  159.2376 C.ar    1  UNL1        0.0376
      5 C         141.4555  144.0693  159.7300 C.ar    1  UNL1        0.0853
      6 N         141.2076  145.3783  159.0408 N.ar    1  UNL1       -0.1969
      7 C         141.0294  141.5140  159.9268 C.ar    1  UNL1        0.0367
      8 C         140.3601  141.2171  161.2359 C.ar    1  UNL1        0.0031
      9 C         140.6081  139.9081  161.9251 C.ar    1  UNL1       -0.0001
     10 C         141.5253  138.8960  161.3052 C.ar    1  UNL1        0.0031
     11 C         142.1945  139.1929  159.9961 C.ar    1  UNL1        0.0369
     12 C         141.9466  140.5019  159.3069 C.ar    1  UNL1        0.1387
     13 C         139.9387  139.6112  163.2343 C.ar    1  UNL1       -0.0039
     14 C         138.8744  140.5295  163.7577 C.ar    1  UNL1       -0.0003
     15 C         138.2050  140.2326  165.0669 C.ar    1  UNL1        0.0011
     16 C         138.6000  139.0174  165.8526 C.ar    1  UNL1        0.0137
     17 C         139.6644  138.0991  165.3291 C.ar    1  UNL1       -0.0031
     18 C         140.3337  138.3960  164.0200 C.ar    1  UNL1       -0.0218
     19 C         141.3981  137.4777  163.4965 C.3     1  UNL1        0.0310
     20 C         137.9308  138.7205  167.1618 C.2     1  UNL1        0.0729
     21 O         136.8050  137.7310  167.2211 O.co2   1  UNL1       -0.5446
     22 O         138.3872  139.4131  168.4115 O.co2   1  UNL1       -0.5446
     23 O         142.6160  140.7988  157.9977 O.3     1  UNL1       -0.4714
     24 C         144.1045  140.6659  157.8693 C.3     1  UNL1        0.2525
     25 C         139.0145  146.8402  156.0770 C.3     1  UNL1        0.2559
     26 O         140.0378  146.7501  157.1699 O.3     1  UNL1       -0.4426
     27 C         142.3774  144.0067  160.9116 C.3     1  UNL1        0.1428
     28 N         141.8151  143.8619  162.2947 N.am    1  UNL1       -0.2380
     29 C         140.7344  144.7077  162.9000 C.2     1  UNL1        0.4055
     30 O         140.0261  145.8469  162.2287 O.2     1  UNL1       -0.2262
     31 O         140.4862  144.2145  164.2947 O.3     1  UNL1       -0.4320
     32 C         141.4136  143.0637  164.5513 C.3     1  UNL1        0.2107
     33 C         142.2349  142.8458  163.3152 C.3     1  UNL1        0.1233
     34 C         143.2906  141.7962  163.1319 C.3     1  UNL1        0.0258
     35 C         141.5038  142.2703  165.8211 C.ar    1  UNL1        0.0189
     36 C         142.2594  140.9748  165.8438 C.ar    1  UNL1        0.0031
     37 C         142.3496  140.1813  167.1135 C.ar    1  UNL1        0.0712
     38 C         141.6842  140.6833  168.3605 C.ar    1  UNL1        0.0077
     39 C         140.9285  141.9789  168.3378 C.ar    1  UNL1        0.0712
     40 C         140.8383  142.7724  167.0681 C.ar    1  UNL1        0.0031
     41 C         143.1052  138.8857  167.1362 C.3     1  UNL1        0.4186
     42 F         143.8609  137.5901  167.1588 F       1  UNL1       -0.1659
     43 F         142.7575  138.7082  168.5844 F       1  UNL1       -0.1659
     44 F         143.4530  139.0632  165.6879 F       1  UNL1       -0.1659
     45 C         140.2631  142.4810  169.5849 C.3     1  UNL1        0.4186
     46 F         139.5976  142.9831  170.8319 F       1  UNL1       -0.1659
     47 F         140.0685  143.8218  168.9412 F       1  UNL1       -0.1659
     48 F         140.4577  141.1401  170.2286 F       1  UNL1       -0.1659
@<TRIPOS>UNITY_ATOM_ATTR
21 1
charge -1
@<TRIPOS>BOND
     1    25    26    1
     2    26     1    1
     3     1     2   ar
     4     2     3   ar
     5     3     4   ar
     6     4     7    1
     7     7     8   ar
     8     8     9   ar
     9     9    13    1
    10    13    14   ar
    11    14    15   ar
    12    15    16   ar
    13    16    20    1
    14    20    21   ar
    15    20    22   ar
    16    16    17   ar
    17    17    18   ar
    18    18    19    1
    19     9    10   ar
    20    10    11   ar
    21    11    12   ar
    22    12    23    1
    23    23    24    1
    24     4     5   ar
    25     5    27    1
    26    27    28    1
    27    28    29   am
    28    29    30    2
    29    29    31    1
    30    31    32    1
    31    32    35    1
    32    35    36   ar
    33    36    37   ar
    34    37    41    1
    35    41    42    1
    36    41    43    1
    37    41    44    1
    38    37    38   ar
    39    38    39   ar
    40    39    45    1
    41    45    46    1
    42    45    47    1
    43    45    48    1
    44    39    40   ar
    45    32    33    1
    46    33    34    1
    47     5     6   ar
    48     6     1   ar
    49    12     7   ar
    50    33    28    1
    51    18    13   ar
    52    40    35   ar
@<TRIPOS>MOLECULE
*****
 48 52 0 0 0
SMALL
GASTEIGER

@<TRIPOS>ATOM
      1 C         140.1666  145.4512  157.9034 C.ar    1  UNL1        0.3198
      2 N         139.5102  144.2004  157.3990 N.ar    1  UNL1       -0.1927
      3 C         139.7673  142.8903  158.0827 C.ar    1  UNL1        0.1049
      4 C         140.6808  142.8309  159.2709 C.ar    1  UNL1        0.0376
      5 C         141.3373  144.0817  159.7754 C.ar    1  UNL1        0.0853
      6 N         141.0802  145.3919  159.0916 N.ar    1  UNL1       -0.1969
      7 C         140.9379  141.5208  159.9547 C.ar    1  UNL1        0.0367
      8 C         140.2892  141.2234  161.2740 C.ar    1  UNL1        0.0031
      9 C         140.5463  139.9133  161.9577 C.ar    1  UNL1       -0.0001
     10 C         141.4520  138.9006  161.3222 C.ar    1  UNL1        0.0031
     11 C         142.1007  139.1980  160.0028 C.ar    1  UNL1        0.0369
     12 C         141.8436  140.5081  159.3191 C.ar    1  UNL1        0.1387
     13 C         139.8975  139.6159  163.2772 C.ar    1  UNL1       -0.0039
     14 C         138.8109  140.5097  163.7970 C.ar    1  UNL1       -0.0003
     15 C         138.1621  140.2123  165.1164 C.ar    1  UNL1        0.0011
     16 C         138.6001  139.0211  165.9159 C.ar    1  UNL1        0.0137
     17 C         139.6868  138.1273  165.3960 C.ar    1  UNL1       -0.0031
     18 C         140.3355  138.4247  164.0767 C.ar    1  UNL1       -0.0218
     19 C         141.4222  137.5309  163.5567 C.3     1  UNL1        0.0310
     20 C         137.9514  138.7237  167.2353 C.2     1  UNL1        0.0729
     21 O         138.4076  139.4375  168.4732 O.co2   1  UNL1       -0.5446
     22 O         136.8466  137.7125  167.3167 O.co2   1  UNL1       -0.5446
     23 O         142.4923  140.8055  157.9997 O.3     1  UNL1       -0.4714
     24 C         143.8358  141.4713  157.9576 C.3     1  UNL1        0.2525
     25 C         139.1051  146.8018  155.9543 C.3     1  UNL1        0.2559
     26 O         139.9096  146.7613  157.2197 O.3     1  UNL1       -0.4426
     27 C         142.2508  144.0225  160.9636 C.3     1  UNL1        0.1428
     28 N         141.6815  143.8366  162.3389 N.am    1  UNL1       -0.2380
     29 C         140.5339  144.6014  162.9287 C.2     1  UNL1        0.4055
     30 O         139.7540  145.6863  162.2470 O.2     1  UNL1       -0.2262
     31 O         140.3029  144.0908  164.3201 O.3     1  UNL1       -0.4320
     32 C         141.3079  143.0104  164.5902 C.3     1  UNL1        0.2107
     33 C         142.1599  142.8533  163.3657 C.3     1  UNL1        0.1233
     34 C         143.2916  141.8833  163.1976 C.3     1  UNL1        0.0258
     35 C         141.4380  142.2251  165.8615 C.ar    1  UNL1        0.0189
     36 C         140.7922  142.7233  167.1203 C.ar    1  UNL1        0.0031
     37 C         140.9222  141.9379  168.3916 C.ar    1  UNL1        0.0712
     38 C         141.6981  140.6544  168.4042 C.ar    1  UNL1        0.0077
     39 C         142.3440  140.1561  167.1454 C.ar    1  UNL1        0.0712
     40 C         142.2139  140.9414  165.8741 C.ar    1  UNL1        0.0031
     41 C         140.2764  142.4363  169.6504 C.3     1  UNL1        0.4186
     42 F         139.6304  142.9346  170.9092 F       1  UNL1       -0.1659
     43 F         140.4721  141.0907  170.2836 F       1  UNL1       -0.1659
     44 F         140.0805  143.7819  169.0172 F       1  UNL1       -0.1659
     45 C         143.1200  138.8724  167.1579 C.3     1  UNL1        0.4186
     46 F         143.8960  137.5888  167.1705 F       1  UNL1       -0.1659
     47 F         143.4515  139.0586  165.7069 F       1  UNL1       -0.1659
     48 F         142.7885  138.6862  168.6090 F       1  UNL1       -0.1659
@<TRIPOS>UNITY_ATOM_ATTR
21 1
charge -1
@<TRIPOS>BOND
     1    25    26    1
     2    26     1    1
     3     1     2   ar
     4     2     3   ar
     5     3     4   ar
     6     4     7    1
     7     7     8   ar
     8     8     9   ar
     9     9    13    1
    10    13    14   ar
    11    14    15   ar
    12    15    16   ar
    13    16    20    1
    14    20    21   ar
    15    20    22   ar
    16    16    17   ar
    17    17    18   ar
    18    18    19    1
    19     9    10   ar
    20    10    11   ar
    21    11    12   ar
    22    12    23    1
    23    23    24    1
    24     4     5   ar
    25     5    27    1
    26    27    28    1
    27    28    29   am
    28    29    30    2
    29    29    31    1
    30    31    32    1
    31    32    35    1
    32    35    36   ar
    33    36    37   ar
    34    37    41    1
    35    41    42    1
    36    41    43    1
    37    41    44    1
    38    37    38   ar
    39    38    39   ar
    40    39    45    1
    41    45    46    1
    42    45    47    1
    43    45    48    1
    44    39    40   ar
    45    32    33    1
    46    33    34    1
    47     5     6   ar
    48     6     1   ar
    49    12     7   ar
    50    33    28    1
    51    18    13   ar
    52    40    35   ar
@<TRIPOS>MOLECULE
*****
 48 52 0 0 0
SMALL
GASTEIGER

@<TRIPOS>ATOM
      1 C         140.7931  145.4350  158.0362 C.ar    1  UNL1        0.3198
      2 N         142.2418  145.0595  158.1364 N.ar    1  UNL1       -0.1927
      3 C         142.6559  143.8833  158.9701 C.ar    1  UNL1        0.1049
      4 C         141.6212  143.0826  159.7037 C.ar    1  UNL1        0.0376
      5 C         140.1724  143.4581  159.6035 C.ar    1  UNL1        0.0853
      6 N         139.7584  144.6343  158.7698 N.ar    1  UNL1       -0.1969
      7 C         142.0352  141.9064  160.5375 C.ar    1  UNL1        0.0367
      8 C         142.2167  142.0634  162.0181 C.ar    1  UNL1        0.0031
      9 C         142.6308  140.8872  162.8519 C.ar    1  UNL1       -0.0001
     10 C         142.8633  139.5540  162.2050 C.ar    1  UNL1        0.0031
     11 C         142.6819  139.3971  160.7243 C.ar    1  UNL1        0.0369
     12 C         142.2678  140.5732  159.8906 C.ar    1  UNL1        0.1387
     13 C         142.8123  141.0443  164.3326 C.ar    1  UNL1       -0.0039
     14 C         143.3379  142.3332  164.8912 C.ar    1  UNL1       -0.0003
     15 C         143.5194  142.4903  166.3720 C.ar    1  UNL1        0.0011
     16 C         143.1752  141.3583  167.2940 C.ar    1  UNL1        0.0137
     17 C         142.6495  140.0692  166.7353 C.ar    1  UNL1       -0.0031
     18 C         142.4681  139.9122  165.2546 C.ar    1  UNL1       -0.0218
     19 C         141.9424  138.6232  164.6959 C.3     1  UNL1        0.0310
     20 C         143.3566  141.5153  168.7746 C.2     1  UNL1        0.0729
     21 O         143.6030  142.8741  169.3602 O.co2   1  UNL1       -0.5446
     22 O         143.2917  140.3134  169.6698 O.co2   1  UNL1       -0.5446
     23 O         142.0863  140.4162  158.4098 O.3     1  UNL1       -0.4714
     24 C         140.8128  139.8383  157.8674 C.3     1  UNL1        0.2525
     25 C         139.3034  146.4561  156.1685 C.3     1  UNL1        0.2559
     26 O         140.3790  146.6112  157.2024 O.3     1  UNL1       -0.4426
     27 C         139.1376  142.6573  160.3372 C.3     1  UNL1        0.1428
     28 N         139.0525  142.7327  161.8328 N.am    1  UNL1       -0.2380
     29 C         138.9169  143.9857  162.6462 C.2     1  UNL1        0.4055
     30 O         138.8427  145.3833  162.1067 O.2     1  UNL1       -0.2262
     31 O         138.8685  143.5957  164.0938 O.3     1  UNL1       -0.4320
     32 C         138.9743  142.1016  164.1751 C.3     1  UNL1        0.2107
     33 C         139.0879  141.5682  162.7777 C.3     1  UNL1        0.1233
     34 C         139.2148  140.1240  162.3929 C.3     1  UNL1        0.0258
     35 C         138.9675  141.2844  165.4329 C.ar    1  UNL1        0.0189
     36 C         138.3960  139.8976  165.4232 C.ar    1  UNL1        0.0031
     37 C         138.3892  139.0804  166.6811 C.ar    1  UNL1        0.0712
     38 C         138.9539  139.6500  167.9485 C.ar    1  UNL1        0.0077
     39 C         139.5255  141.0367  167.9582 C.ar    1  UNL1        0.0712
     40 C         139.5323  141.8539  166.7004 C.ar    1  UNL1        0.0031
     41 C         137.8176  137.6936  166.6713 C.3     1  UNL1        0.4186
     42 F         137.2460  136.3068  166.6616 F       1  UNL1       -0.1659
     43 F         138.7606  137.3126  165.5689 F       1  UNL1       -0.1659
     44 F         136.8745  138.0746  167.7738 F       1  UNL1       -0.1659
     45 C         140.0903  141.6063  169.2258 C.3     1  UNL1        0.4186
     46 F         140.6551  142.1759  170.4933 F       1  UNL1       -0.1659
     47 F         140.1529  140.2291  169.8168 F       1  UNL1       -0.1659
     48 F         140.0277  142.9836  168.6348 F       1  UNL1       -0.1659
@<TRIPOS>UNITY_ATOM_ATTR
21 1
charge -1
@<TRIPOS>BOND
     1    25    26    1
     2    26     1    1
     3     1     2   ar
     4     2     3   ar
     5     3     4   ar
     6     4     7    1
     7     7     8   ar
     8     8     9   ar
     9     9    13    1
    10    13    14   ar
    11    14    15   ar
    12    15    16   ar
    13    16    20    1
    14    20    21   ar
    15    20    22   ar
    16    16    17   ar
    17    17    18   ar
    18    18    19    1
    19     9    10   ar
    20    10    11   ar
    21    11    12   ar
    22    12    23    1
    23    23    24    1
    24     4     5   ar
    25     5    27    1
    26    27    28    1
    27    28    29   am
    28    29    30    2
    29    29    31    1
    30    31    32    1
    31    32    35    1
    32    35    36   ar
    33    36    37   ar
    34    37    41    1
    35    41    42    1
    36    41    43    1
    37    41    44    1
    38    37    38   ar
    39    38    39   ar
    40    39    45    1
    41    45    46    1
    42    45    47    1
    43    45    48    1
    44    39    40   ar
    45    32    33    1
    46    33    34    1
    47     5     6   ar
    48     6     1   ar
    49    12     7   ar
    50    33    28    1
    51    18    13   ar
    52    40    35   ar
@<TRIPOS>MOLECULE
*****
 48 52 0 0 0
SMALL
GASTEIGER

@<TRIPOS>ATOM
      1 C         140.3997  145.1225  157.7737 C.ar    1  UNL1        0.3198
      2 N         141.6190  144.3736  157.3240 N.ar    1  UNL1       -0.1927
      3 C         141.8621  142.9755  157.8098 C.ar    1  UNL1        0.1049
      4 C         140.8859  142.3262  158.7454 C.ar    1  UNL1        0.0376
      5 C         139.6665  143.0751  159.1951 C.ar    1  UNL1        0.0853
      6 N         139.4234  144.4732  158.7092 N.ar    1  UNL1       -0.1969
      7 C         141.1290  140.9281  159.2313 C.ar    1  UNL1        0.0367
      8 C         141.5730  140.6917  160.6444 C.ar    1  UNL1        0.0031
      9 C         141.8161  139.2935  161.1302 C.ar    1  UNL1       -0.0001
     10 C         141.6152  138.1318  160.2030 C.ar    1  UNL1        0.0031
     11 C         141.1712  138.3681  158.7899 C.ar    1  UNL1        0.0369
     12 C         140.9281  139.7663  158.3040 C.ar    1  UNL1        0.1387
     13 C         142.2602  139.0572  162.5434 C.ar    1  UNL1       -0.0039
     14 C         141.3499  138.3573  163.5085 C.ar    1  UNL1       -0.0003
     15 C         141.7939  138.1210  164.9217 C.ar    1  UNL1        0.0011
     16 C         143.1483  138.5846  165.3697 C.ar    1  UNL1        0.0137
     17 C         144.0586  139.2845  164.4046 C.ar    1  UNL1       -0.0031
     18 C         143.6146  139.5208  162.9915 C.ar    1  UNL1       -0.0218
     19 C         144.5249  140.2208  162.0263 C.3     1  UNL1        0.0310
     20 C         143.5924  138.3483  166.7829 C.2     1  UNL1        0.0729
     21 O         143.0972  139.2390  167.8835 O.co2   1  UNL1       -0.5446
     22 O         144.5316  137.2213  167.0953 O.co2   1  UNL1       -0.5446
     23 O         140.4840  140.0026  156.8908 O.3     1  UNL1       -0.4714
     24 C         139.0304  140.2128  156.5867 C.3     1  UNL1        0.2525
     25 C         139.3460  146.7533  156.0473 C.3     1  UNL1        0.2559
     26 O         140.1565  146.5207  157.2878 O.3     1  UNL1       -0.4426
     27 C         138.6902  142.4258  160.1307 C.3     1  UNL1        0.1428
     28 N         138.8759  142.5510  161.6139 N.am    1  UNL1       -0.2380
     29 C         139.1396  143.8222  162.3652 C.2     1  UNL1        0.4055
     30 O         139.2638  145.1914  161.7653 O.2     1  UNL1       -0.2262
     31 O         139.2572  143.4839  163.8218 O.3     1  UNL1       -0.4320
     32 C         139.0662  142.0036  163.9707 C.3     1  UNL1        0.2107
     33 C         138.8306  141.4270  162.6061 C.3     1  UNL1        0.1233
     34 C         138.5916  139.9805  162.2894 C.3     1  UNL1        0.0258
     35 C         139.1042  141.2348  165.2581 C.ar    1  UNL1        0.0189
     36 C         138.4308  139.8979  165.3536 C.ar    1  UNL1        0.0031
     37 C         138.4688  139.1291  166.6410 C.ar    1  UNL1        0.0712
     38 C         139.1802  139.6972  167.8330 C.ar    1  UNL1        0.0077
     39 C         139.8537  141.0341  167.7377 C.ar    1  UNL1        0.0712
     40 C         139.8157  141.8029  166.4502 C.ar    1  UNL1        0.0031
     41 C         137.7953  137.7923  166.7363 C.3     1  UNL1        0.4186
     42 F         137.1217  136.4553  166.8317 F       1  UNL1       -0.1659
     43 F         138.6327  137.2891  165.5982 F       1  UNL1       -0.1659
     44 F         136.9578  138.2954  167.8745 F       1  UNL1       -0.1659
     45 C         140.5653  141.6022  168.9297 C.3     1  UNL1        0.4186
     46 F         141.2768  142.1703  170.1218 F       1  UNL1       -0.1659
     47 F         141.6042  142.1972  168.0261 F       1  UNL1       -0.1659
     48 F         139.5263  141.0072  169.8334 F       1  UNL1       -0.1659
@<TRIPOS>UNITY_ATOM_ATTR
21 1
charge -1
@<TRIPOS>BOND
     1    25    26    1
     2    26     1    1
     3     1     2   ar
     4     2     3   ar
     5     3     4   ar
     6     4     7    1
     7     7     8   ar
     8     8     9   ar
     9     9    13    1
    10    13    14   ar
    11    14    15   ar
    12    15    16   ar
    13    16    20    1
    14    20    21   ar
    15    20    22   ar
    16    16    17   ar
    17    17    18   ar
    18    18    19    1
    19     9    10   ar
    20    10    11   ar
    21    11    12   ar
    22    12    23    1
    23    23    24    1
    24     4     5   ar
    25     5    27    1
    26    27    28    1
    27    28    29   am
    28    29    30    2
    29    29    31    1
    30    31    32    1
    31    32    35    1
    32    35    36   ar
    33    36    37   ar
    34    37    41    1
    35    41    42    1
    36    41    43    1
    37    41    44    1
    38    37    38   ar
    39    38    39   ar
    40    39    45    1
    41    45    46    1
    42    45    47    1
    43    45    48    1
    44    39    40   ar
    45    32    33    1
    46    33    34    1
    47     5     6   ar
    48     6     1   ar
    49    12     7   ar
    50    33    28    1
    51    18    13   ar
    52    40    35   ar
@<TRIPOS>MOLECULE
*****
 48 52 0 0 0
SMALL
GASTEIGER

@<TRIPOS>ATOM
      1 C         142.8279  136.9664  156.5382 C.ar    1  UNL1        0.3198
      2 N         141.3481  136.7417  156.4400 N.ar    1  UNL1       -0.1927
      3 C         140.4071  137.5737  157.2598 C.ar    1  UNL1        0.1049
      4 C         140.9458  138.6305  158.1779 C.ar    1  UNL1        0.0376
      5 C         142.4256  138.8552  158.2761 C.ar    1  UNL1        0.0853
      6 N         143.3666  138.0231  157.4563 N.ar    1  UNL1       -0.1969
      7 C         140.0048  139.4625  158.9978 C.ar    1  UNL1        0.0367
      8 C         139.7960  139.1480  160.4495 C.ar    1  UNL1        0.0031
      9 C         138.8550  139.9800  161.2693 C.ar    1  UNL1       -0.0001
     10 C         138.1228  141.1266  160.6375 C.ar    1  UNL1        0.0031
     11 C         138.3317  141.4412  159.1859 C.ar    1  UNL1        0.0369
     12 C         139.2727  140.6091  158.3660 C.ar    1  UNL1        0.1387
     13 C         138.6461  139.6654  162.7211 C.ar    1  UNL1       -0.0039
     14 C         139.0230  138.3165  163.2579 C.ar    1  UNL1       -0.0003
     15 C         138.8141  138.0019  164.7097 C.ar    1  UNL1        0.0011
     16 C         138.2284  139.0363  165.6245 C.ar    1  UNL1        0.0137
     17 C         137.8516  140.3853  165.0876 C.ar    1  UNL1       -0.0031
     18 C         138.0604  140.6998  163.6359 C.ar    1  UNL1       -0.0218
     19 C         137.6835  142.0489  163.0990 C.3     1  UNL1        0.0310
     20 C         138.0196  138.7217  167.0762 C.2     1  UNL1        0.0729
     21 O         136.9632  137.7389  167.4862 O.co2   1  UNL1       -0.5446
     22 O         138.8671  139.3900  168.1178 O.co2   1  UNL1       -0.5446
     23 O         139.4815  140.9237  156.9143 O.3     1  UNL1       -0.4714
     24 C         138.4339  140.5506  155.9077 C.3     1  UNL1        0.2525
     25 C         143.8001  134.6449  155.8935 C.3     1  UNL1        0.2559
     26 O         143.7689  136.1343  155.7183 O.3     1  UNL1       -0.4426
     27 C         142.9645  139.9120  159.1943 C.3     1  UNL1        0.1428
     28 N         142.8860  139.7254  160.6805 N.am    1  UNL1       -0.2380
     29 C         143.3331  138.5126  161.4416 C.2     1  UNL1        0.4055
     30 O         143.9371  137.2736  160.8501 O.2     1  UNL1       -0.2262
     31 O         143.0701  138.7564  162.8981 O.3     1  UNL1       -0.4320
     32 C         142.4604  140.1199  163.0372 C.3     1  UNL1        0.2107
     33 C         142.3466  140.7187  161.6666 C.3     1  UNL1        0.1233
     34 C         141.7911  142.0731  161.3396 C.3     1  UNL1        0.0258
     35 C         142.0386  140.7703  164.3213 C.ar    1  UNL1        0.0189
     36 C         141.1686  141.9918  164.2929 C.ar    1  UNL1        0.0031
     37 C         140.7468  142.6422  165.5770 C.ar    1  UNL1        0.0712
     38 C         141.1949  142.0711  166.8896 C.ar    1  UNL1        0.0077
     39 C         142.0649  140.8495  166.9181 C.ar    1  UNL1        0.0712
     40 C         142.4867  140.1991  165.6339 C.ar    1  UNL1        0.0031
     41 C         139.8767  143.8638  165.5486 C.3     1  UNL1        0.4186
     42 F         139.0067  145.0854  165.5200 F       1  UNL1       -0.1659
     43 F         139.6895  143.7652  167.0335 F       1  UNL1       -0.1659
     44 F         140.0639  143.9625  164.0636 F       1  UNL1       -0.1659
     45 C         142.5131  140.2783  168.2307 C.3     1  UNL1        0.4186
     46 F         142.9613  139.7072  169.5433 F       1  UNL1       -0.1659
     47 F         142.0413  141.5180  168.9312 F       1  UNL1       -0.1659
     48 F         142.9849  139.0387  167.5301 F       1  UNL1       -0.1659
@<TRIPOS>UNITY_ATOM_ATTR
21 1
charge -1
@<TRIPOS>BOND
     1    25    26    1
     2    26     1    1
     3     1     2   ar
     4     2     3   ar
     5     3     4   ar
     6     4     7    1
     7     7     8   ar
     8     8     9   ar
     9     9    13    1
    10    13    14   ar
    11    14    15   ar
    12    15    16   ar
    13    16    20    1
    14    20    21   ar
    15    20    22   ar
    16    16    17   ar
    17    17    18   ar
    18    18    19    1
    19     9    10   ar
    20    10    11   ar
    21    11    12   ar
    22    12    23    1
    23    23    24    1
    24     4     5   ar
    25     5    27    1
    26    27    28    1
    27    28    29   am
    28    29    30    2
    29    29    31    1
    30    31    32    1
    31    32    35    1
    32    35    36   ar
    33    36    37   ar
    34    37    41    1
    35    41    42    1
    36    41    43    1
    37    41    44    1
    38    37    38   ar
    39    38    39   ar
    40    39    45    1
    41    45    46    1
    42    45    47    1
    43    45    48    1
    44    39    40   ar
    45    32    33    1
    46    33    34    1
    47     5     6   ar
    48     6     1   ar
    49    12     7   ar
    50    33    28    1
    51    18    13   ar
    52    40    35   ar
@<TRIPOS>MOLECULE
*****
 48 52 0 0 0
SMALL
GASTEIGER

@<TRIPOS>ATOM
      1 C         142.8218  136.9649  156.5703 C.ar    1  UNL1        0.3198
      2 N         141.3404  136.7497  156.4756 N.ar    1  UNL1       -0.1927
      3 C         140.4065  137.5905  157.2947 C.ar    1  UNL1        0.1049
      4 C         140.9541  138.6465  158.2085 C.ar    1  UNL1        0.0376
      5 C         142.4355  138.8617  158.3032 C.ar    1  UNL1        0.0853
      6 N         143.3694  138.0209  157.4841 N.ar    1  UNL1       -0.1969
      7 C         140.0202  139.4873  159.0276 C.ar    1  UNL1        0.0367
      8 C         139.8091  139.1762  160.4796 C.ar    1  UNL1        0.0031
      9 C         138.8752  140.0171  161.2987 C.ar    1  UNL1       -0.0001
     10 C         138.1525  141.1690  160.6657 C.ar    1  UNL1        0.0031
     11 C         138.3637  141.4801  159.2137 C.ar    1  UNL1        0.0369
     12 C         139.2975  140.6393  158.3946 C.ar    1  UNL1        0.1387
     13 C         138.6640  139.7059  162.7509 C.ar    1  UNL1       -0.0039
     14 C         139.0701  138.3698  163.2984 C.ar    1  UNL1       -0.0003
     15 C         138.8590  138.0586  164.7505 C.ar    1  UNL1        0.0011
     16 C         138.2417  139.0836  165.6551 C.ar    1  UNL1        0.0137
     17 C         137.8356  140.4198  165.1076 C.ar    1  UNL1       -0.0031
     18 C         138.0468  140.7309  163.6555 C.ar    1  UNL1       -0.0218
     19 C         137.6407  142.0671  163.1079 C.3     1  UNL1        0.0310
     20 C         138.0306  138.7725  167.1072 C.2     1  UNL1        0.0729
     21 O         136.9687  137.7961  167.5183 O.co2   1  UNL1       -0.5446
     22 O         138.8813  139.4379  168.1481 O.co2   1  UNL1       -0.5446
     23 O         139.5087  140.9504  156.9424 O.3     1  UNL1       -0.4714
     24 C         138.4687  140.5629  155.9334 C.3     1  UNL1        0.2525
     25 C         143.7293  134.6300  155.8814 C.3     1  UNL1        0.2559
     26 O         143.7557  136.1240  155.7512 O.3     1  UNL1       -0.4426
     27 C         142.9832  139.9177  159.2169 C.3     1  UNL1        0.1428
     28 N         142.8950  139.7421  160.7040 N.am    1  UNL1       -0.2380
     29 C         143.3248  138.5296  161.4755 C.2     1  UNL1        0.4055
     30 O         143.9182  137.2801  160.8955 O.2     1  UNL1       -0.2262
     31 O         143.0570  138.7862  162.9290 O.3     1  UNL1       -0.4320
     32 C         142.4617  140.1572  163.0557 C.3     1  UNL1        0.2107
     33 C         142.3616  140.7479  161.6806 C.3     1  UNL1        0.1233
     34 C         141.8227  142.1061  161.3416 C.3     1  UNL1        0.0258
     35 C         142.0405  140.8209  164.3332 C.ar    1  UNL1        0.0189
     36 C         142.5052  140.2749  165.6507 C.ar    1  UNL1        0.0031
     37 C         142.0840  140.9386  166.9282 C.ar    1  UNL1        0.0712
     38 C         141.1981  142.1483  166.8882 C.ar    1  UNL1        0.0077
     39 C         140.7333  142.6943  165.5708 C.ar    1  UNL1        0.0712
     40 C         141.1545  142.0307  164.2932 C.ar    1  UNL1        0.0031
     41 C         142.5487  140.3925  168.2457 C.3     1  UNL1        0.4186
     42 F         143.0135  139.8463  169.5632 F       1  UNL1       -0.1659
     43 F         142.2786  141.7193  168.8910 F       1  UNL1       -0.1659
     44 F         142.8189  139.0656  167.6004 F       1  UNL1       -0.1659
     45 C         139.8474  143.9041  165.5308 C.3     1  UNL1        0.4186
     46 F         138.9614  145.1139  165.4908 F       1  UNL1       -0.1659
     47 F         140.0601  144.0110  164.0498 F       1  UNL1       -0.1659
     48 F         139.6346  143.7973  167.0118 F       1  UNL1       -0.1659
@<TRIPOS>UNITY_ATOM_ATTR
21 1
charge -1
@<TRIPOS>BOND
     1    25    26    1
     2    26     1    1
     3     1     2   ar
     4     2     3   ar
     5     3     4   ar
     6     4     7    1
     7     7     8   ar
     8     8     9   ar
     9     9    13    1
    10    13    14   ar
    11    14    15   ar
    12    15    16   ar
    13    16    20    1
    14    20    21   ar
    15    20    22   ar
    16    16    17   ar
    17    17    18   ar
    18    18    19    1
    19     9    10   ar
    20    10    11   ar
    21    11    12   ar
    22    12    23    1
    23    23    24    1
    24     4     5   ar
    25     5    27    1
    26    27    28    1
    27    28    29   am
    28    29    30    2
    29    29    31    1
    30    31    32    1
    31    32    35    1
    32    35    36   ar
    33    36    37   ar
    34    37    41    1
    35    41    42    1
    36    41    43    1
    37    41    44    1
    38    37    38   ar
    39    38    39   ar
    40    39    45    1
    41    45    46    1
    42    45    47    1
    43    45    48    1
    44    39    40   ar
    45    32    33    1
    46    33    34    1
    47     5     6   ar
    48     6     1   ar
    49    12     7   ar
    50    33    28    1
    51    18    13   ar
    52    40    35   ar
@<TRIPOS>MOLECULE
*****
 48 52 0 0 0
SMALL
GASTEIGER

@<TRIPOS>ATOM
      1 C         140.0797  141.7908  155.4355 C.ar    1  UNL1        0.3198
      2 N         141.5741  141.7975  155.5646 N.ar    1  UNL1       -0.1927
      3 C         142.2283  141.1344  156.7403 C.ar    1  UNL1        0.1049
      4 C         141.3881  140.4646  157.7869 C.ar    1  UNL1        0.0376
      5 C         139.8937  140.4579  157.6578 C.ar    1  UNL1        0.0853
      6 N         139.2395  141.1210  156.4821 N.ar    1  UNL1       -0.1969
      7 C         142.0423  139.8015  158.9626 C.ar    1  UNL1        0.0367
      8 C         142.3761  140.6030  160.1858 C.ar    1  UNL1        0.0031
      9 C         143.0303  139.9399  161.3615 C.ar    1  UNL1       -0.0001
     10 C         143.3507  138.4753  161.3141 C.ar    1  UNL1        0.0031
     11 C         143.0170  137.6739  160.0909 C.ar    1  UNL1        0.0369
     12 C         142.3628  138.3370  158.9152 C.ar    1  UNL1        0.1387
     13 C         143.3640  140.7415  162.5847 C.ar    1  UNL1       -0.0039
     14 C         144.1255  142.0272  162.4542 C.ar    1  UNL1       -0.0003
     15 C         144.4592  142.8287  163.6774 C.ar    1  UNL1        0.0011
     16 C         144.0314  142.3445  165.0312 C.ar    1  UNL1        0.0137
     17 C         143.2699  141.0587  165.1616 C.ar    1  UNL1       -0.0031
     18 C         142.9362  140.2573  163.9385 C.ar    1  UNL1       -0.0218
     19 C         142.1747  138.9715  164.0689 C.3     1  UNL1        0.0310
     20 C         144.3651  143.1460  166.2543 C.2     1  UNL1        0.0729
     21 O         143.7634  142.7793  167.5785 O.co2   1  UNL1       -0.5446
     22 O         145.3005  144.3142  166.1534 O.co2   1  UNL1       -0.5446
     23 O         142.0291  137.5354  157.6919 O.3     1  UNL1       -0.4714
     24 C         142.8813  136.3621  157.3086 C.3     1  UNL1        0.2525
     25 C         140.1246  143.5715  153.5442 C.3     1  UNL1        0.2559
     26 O         139.4255  142.4539  154.2597 O.3     1  UNL1       -0.4426
     27 C         139.0535  139.7880  158.7044 C.3     1  UNL1        0.1428
     28 N         138.8896  140.4223  160.0537 N.am    1  UNL1       -0.2380
     29 C         138.4883  141.8434  160.3171 C.2     1  UNL1        0.4055
     30 O         138.1803  142.8797  159.2773 O.2     1  UNL1       -0.2262
     31 O         138.4490  142.0463  161.8027 O.3     1  UNL1       -0.4320
     32 C         138.8261  140.7506  162.4577 C.3     1  UNL1        0.2107
     33 C         139.0984  139.7469  161.3767 C.3     1  UNL1        0.1233
     34 C         139.5077  138.3186  161.5826 C.3     1  UNL1        0.0258
     35 C         138.9152  140.5021  163.9343 C.ar    1  UNL1        0.0189
     36 C         139.5573  141.5207  164.8288 C.ar    1  UNL1        0.0031
     37 C         139.6464  141.2722  166.3053 C.ar    1  UNL1        0.0712
     38 C         139.0934  140.0053  166.8874 C.ar    1  UNL1        0.0077
     39 C         138.4513  138.9867  165.9930 C.ar    1  UNL1        0.0712
     40 C         138.3622  139.2351  164.5164 C.ar    1  UNL1        0.0031
     41 C         140.2885  142.2908  167.1998 C.3     1  UNL1        0.4186
     42 F         140.9307  143.3095  168.0944 F       1  UNL1       -0.1659
     43 F         140.6841  143.0968  165.9982 F       1  UNL1       -0.1659
     44 F         139.8930  141.4850  168.4015 F       1  UNL1       -0.1659
     45 C         137.8983  137.7196  166.5751 C.3     1  UNL1        0.4186
     46 F         137.3453  136.4526  167.1572 F       1  UNL1       -0.1659
     47 F         138.5213  136.9349  165.4588 F       1  UNL1       -0.1659
     48 F         137.2752  138.5044  167.6913 F       1  UNL1       -0.1659
@<TRIPOS>UNITY_ATOM_ATTR
21 1
charge -1
@<TRIPOS>BOND
     1    25    26    1
     2    26     1    1
     3     1     2   ar
     4     2     3   ar
     5     3     4   ar
     6     4     7    1
     7     7     8   ar
     8     8     9   ar
     9     9    13    1
    10    13    14   ar
    11    14    15   ar
    12    15    16   ar
    13    16    20    1
    14    20    21   ar
    15    20    22   ar
    16    16    17   ar
    17    17    18   ar
    18    18    19    1
    19     9    10   ar
    20    10    11   ar
    21    11    12   ar
    22    12    23    1
    23    23    24    1
    24     4     5   ar
    25     5    27    1
    26    27    28    1
    27    28    29   am
    28    29    30    2
    29    29    31    1
    30    31    32    1
    31    32    35    1
    32    35    36   ar
    33    36    37   ar
    34    37    41    1
    35    41    42    1
    36    41    43    1
    37    41    44    1
    38    37    38   ar
    39    38    39   ar
    40    39    45    1
    41    45    46    1
    42    45    47    1
    43    45    48    1
    44    39    40   ar
    45    32    33    1
    46    33    34    1
    47     5     6   ar
    48     6     1   ar
    49    12     7   ar
    50    33    28    1
    51    18    13   ar
    52    40    35   ar
@<TRIPOS>MOLECULE
*****
 48 52 0 0 0
SMALL
GASTEIGER

@<TRIPOS>ATOM
      1 C         139.9201  141.8136  155.4630 C.ar    1  UNL1        0.3198
      2 N         141.4168  141.8051  155.5618 N.ar    1  UNL1       -0.1927
      3 C         142.0877  141.1395  156.7267 C.ar    1  UNL1        0.1049
      4 C         141.2620  140.4826  157.7927 C.ar    1  UNL1        0.0376
      5 C         139.7653  140.4911  157.6939 C.ar    1  UNL1        0.0853
      6 N         139.0944  141.1566  156.5291 N.ar    1  UNL1       -0.1969
      7 C         141.9330  139.8170  158.9576 C.ar    1  UNL1        0.0367
      8 C         142.2875  140.6167  160.1761 C.ar    1  UNL1        0.0031
      9 C         142.9585  139.9512  161.3409 C.ar    1  UNL1       -0.0001
     10 C         143.2749  138.4860  161.2873 C.ar    1  UNL1        0.0031
     11 C         142.9204  137.6863  160.0688 C.ar    1  UNL1        0.0369
     12 C         142.2494  138.3518  158.9040 C.ar    1  UNL1        0.1387
     13 C         143.3130  140.7510  162.5594 C.ar    1  UNL1       -0.0039
     14 C         144.0859  142.0288  162.4191 C.ar    1  UNL1       -0.0003
     15 C         144.4405  142.8286  163.6376 C.ar    1  UNL1        0.0011
     16 C         144.0221  142.3505  164.9964 C.ar    1  UNL1        0.0137
     17 C         143.2491  141.0726  165.1367 C.ar    1  UNL1       -0.0031
     18 C         142.8946  140.2729  163.9182 C.ar    1  UNL1       -0.0218
     19 C         142.1217  138.9950  164.0585 C.3     1  UNL1        0.0310
     20 C         144.3766  143.1502  166.2149 C.2     1  UNL1        0.0729
     21 O         143.8054  142.7755  167.5503 O.co2   1  UNL1       -0.5446
     22 O         145.3023  144.3246  166.0980 O.co2   1  UNL1       -0.5446
     23 O         141.8948  137.5520  157.6855 O.3     1  UNL1       -0.4714
     24 C         142.9399  136.7181  157.0055 C.3     1  UNL1        0.2525
     25 C         137.9741  143.2422  154.5028 C.3     1  UNL1        0.2559
     26 O         139.2491  142.4791  154.2982 O.3     1  UNL1       -0.4426
     27 C         138.9395  139.8341  158.7600 C.3     1  UNL1        0.1428
     28 N         138.8156  140.4715  160.1122 N.am    1  UNL1       -0.2380
     29 C         138.4676  141.9053  160.3824 C.2     1  UNL1        0.4055
     30 O         138.1824  142.9535  159.3480 O.2     1  UNL1       -0.2262
     31 O         138.4549  142.1070  161.8687 O.3     1  UNL1       -0.4320
     32 C         138.7951  140.7978  162.5171 C.3     1  UNL1        0.2107
     33 C         139.0180  139.7870  161.4315 C.3     1  UNL1        0.1233
     34 C         139.3798  138.3449  161.6303 C.3     1  UNL1        0.0258
     35 C         138.8948  140.5440  163.9921 C.ar    1  UNL1        0.0189
     36 C         138.3253  139.2855  164.5768 C.ar    1  UNL1        0.0031
     37 C         138.4250  139.0317  166.0517 C.ar    1  UNL1        0.0712
     38 C         139.0941  140.0363  166.9421 C.ar    1  UNL1        0.0077
     39 C         139.6637  141.2948  166.3575 C.ar    1  UNL1        0.0712
     40 C         139.5640  141.5487  164.8825 C.ar    1  UNL1        0.0031
     41 C         137.8555  137.7732  166.6363 C.3     1  UNL1        0.4186
     42 F         137.2859  136.5145  167.2209 F       1  UNL1       -0.1659
     43 F         137.2011  138.5739  167.7228 F       1  UNL1       -0.1659
     44 F         138.5099  136.9724  165.5499 F       1  UNL1       -0.1659
     45 C         140.3329  142.2995  167.2479 C.3     1  UNL1        0.4186
     46 F         141.0021  143.3042  168.1383 F       1  UNL1       -0.1659
     47 F         141.0497  141.1909  167.9600 F       1  UNL1       -0.1659
     48 F         139.6160  143.4081  166.5357 F       1  UNL1       -0.1659
@<TRIPOS>UNITY_ATOM_ATTR
21 1
charge -1
@<TRIPOS>BOND
     1    25    26    1
     2    26     1    1
     3     1     2   ar
     4     2     3   ar
     5     3     4   ar
     6     4     7    1
     7     7     8   ar
     8     8     9   ar
     9     9    13    1
    10    13    14   ar
    11    14    15   ar
    12    15    16   ar
    13    16    20    1
    14    20    21   ar
    15    20    22   ar
    16    16    17   ar
    17    17    18   ar
    18    18    19    1
    19     9    10   ar
    20    10    11   ar
    21    11    12   ar
    22    12    23    1
    23    23    24    1
    24     4     5   ar
    25     5    27    1
    26    27    28    1
    27    28    29   am
    28    29    30    2
    29    29    31    1
    30    31    32    1
    31    32    35    1
    32    35    36   ar
    33    36    37   ar
    34    37    41    1
    35    41    42    1
    36    41    43    1
    37    41    44    1
    38    37    38   ar
    39    38    39   ar
    40    39    45    1
    41    45    46    1
    42    45    47    1
    43    45    48    1
    44    39    40   ar
    45    32    33    1
    46    33    34    1
    47     5     6   ar
    48     6     1   ar
    49    12     7   ar
    50    33    28    1
    51    18    13   ar
    52    40    35   ar
@<TRIPOS>MOLECULE
*****
 48 52 0 0 0
SMALL
GASTEIGER

@<TRIPOS>ATOM
      1 C         144.8960  141.9961  158.0743 C.ar    1  UNL1        0.3198
      2 N         144.2644  140.6580  157.8280 N.ar    1  UNL1       -0.1927
      3 C         142.8693  140.3873  158.3080 C.ar    1  UNL1        0.1049
      4 C         142.1058  141.4547  159.0344 C.ar    1  UNL1        0.0376
      5 C         142.7373  142.7927  159.2808 C.ar    1  UNL1        0.0853
      6 N         144.1324  143.0634  158.8007 N.ar    1  UNL1       -0.1969
      7 C         140.7107  141.1840  159.5145 C.ar    1  UNL1        0.0367
      8 C         140.4773  140.7346  160.9264 C.ar    1  UNL1        0.0031
      9 C         139.0822  140.4639  161.4064 C.ar    1  UNL1       -0.0001
     10 C         137.9205  140.6426  160.4746 C.ar    1  UNL1        0.0031
     11 C         138.1539  141.0920  159.0627 C.ar    1  UNL1        0.0369
     12 C         139.5490  141.3627  158.5826 C.ar    1  UNL1        0.1387
     13 C         138.8489  140.0144  162.8184 C.ar    1  UNL1       -0.0039
     14 C         138.1741  140.9309  163.7954 C.ar    1  UNL1       -0.0003
     15 C         137.9407  140.4814  165.2074 C.ar    1  UNL1        0.0011
     16 C         138.3823  139.1155  165.6423 C.ar    1  UNL1        0.0137
     17 C         139.0572  138.1990  164.6652 C.ar    1  UNL1       -0.0031
     18 C         139.2905  138.6484  163.2533 C.ar    1  UNL1       -0.0218
     19 C         139.9653  137.7319  162.2762 C.3     1  UNL1        0.0310
     20 C         138.1490  138.6660  167.0542 C.2     1  UNL1        0.0729
     21 O         137.2795  137.4748  167.3281 O.co2   1  UNL1       -0.5446
     22 O         138.7852  139.4077  168.1922 O.co2   1  UNL1       -0.5446
     23 O         139.7823  141.8122  157.1706 O.3     1  UNL1       -0.4714
     24 C         139.7116  140.8213  156.0468 C.3     1  UNL1        0.2525
     25 C         146.6756  141.9372  156.1824 C.3     1  UNL1        0.2559
     26 O         146.2911  142.2668  157.5943 O.3     1  UNL1       -0.4426
     27 C         141.9737  143.8602  160.0072 C.3     1  UNL1        0.1428
     28 N         141.4282  143.5909  161.3782 N.am    1  UNL1       -0.2380
     29 C         140.0875  144.0225  161.8941 C.2     1  UNL1        0.4055
     30 O         139.0570  144.7993  161.1295 O.2     1  UNL1       -0.2262
     31 O         139.9582  143.5411  163.3088 O.3     1  UNL1       -0.4320
     32 C         141.2190  142.8118  163.6673 C.3     1  UNL1        0.2107
     33 C         142.1275  142.8426  162.4741 C.3     1  UNL1        0.1233
     34 C         143.4952  142.2322  162.3914 C.3     1  UNL1        0.0258
     35 C         141.5187  142.1652  164.9872 C.ar    1  UNL1        0.0189
     36 C         141.1348  142.8530  166.2636 C.ar    1  UNL1        0.0031
     37 C         141.4345  142.2065  167.5835 C.ar    1  UNL1        0.0712
     38 C         142.1181  140.8722  167.6270 C.ar    1  UNL1        0.0077
     39 C         142.5021  140.1842  166.3506 C.ar    1  UNL1        0.0712
     40 C         142.2024  140.8308  165.0307 C.ar    1  UNL1        0.0031
     41 C         141.0505  142.8944  168.8600 C.3     1  UNL1        0.4186
     42 F         140.6664  143.5824  170.1365 F       1  UNL1       -0.1659
     43 F         142.0889  142.1034  169.5988 F       1  UNL1       -0.1659
     44 F         140.0120  143.6855  168.1212 F       1  UNL1       -0.1659
     45 C         143.1858  138.8498  166.3940 C.3     1  UNL1        0.4186
     46 F         143.8695  137.5154  166.4375 F       1  UNL1       -0.1659
     47 F         143.0299  138.8185  167.8856 F       1  UNL1       -0.1659
     48 F         143.3417  138.8811  164.9024 F       1  UNL1       -0.1659
@<TRIPOS>UNITY_ATOM_ATTR
21 1
charge -1
@<TRIPOS>BOND
     1    25    26    1
     2    26     1    1
     3     1     2   ar
     4     2     3   ar
     5     3     4   ar
     6     4     7    1
     7     7     8   ar
     8     8     9   ar
     9     9    13    1
    10    13    14   ar
    11    14    15   ar
    12    15    16   ar
    13    16    20    1
    14    20    21   ar
    15    20    22   ar
    16    16    17   ar
    17    17    18   ar
    18    18    19    1
    19     9    10   ar
    20    10    11   ar
    21    11    12   ar
    22    12    23    1
    23    23    24    1
    24     4     5   ar
    25     5    27    1
    26    27    28    1
    27    28    29   am
    28    29    30    2
    29    29    31    1
    30    31    32    1
    31    32    35    1
    32    35    36   ar
    33    36    37   ar
    34    37    41    1
    35    41    42    1
    36    41    43    1
    37    41    44    1
    38    37    38   ar
    39    38    39   ar
    40    39    45    1
    41    45    46    1
    42    45    47    1
    43    45    48    1
    44    39    40   ar
    45    32    33    1
    46    33    34    1
    47     5     6   ar
    48     6     1   ar
    49    12     7   ar
    50    33    28    1
    51    18    13   ar
    52    40    35   ar
