@<TRIPOS>MOLECULE
*****
 40 42 0 0 0
SMALL
GASTEIGER

@<TRIPOS>ATOM
      1 O         138.8526  139.4648  166.7151 O.2     1  UNL1       -0.2864
      2 C         140.0916  140.3059  166.8014 C.2     1  UNL1        0.2000
      3 C         140.5723  140.7986  168.1342 C.ar    1  UNL1        0.0786
      4 C         139.8140  140.4503  169.3806 C.ar    1  UNL1        0.1370
      5 O         138.5749  139.6093  169.2943 O.3     1  UNL1       -0.5054
      6 C         140.2946  140.9431  170.7133 C.ar    1  UNL1        0.0398
      7 C         141.5337  141.7841  170.7995 C.ar    1  UNL1        0.0398
      8 C         142.2920  142.1324  169.5532 C.ar    1  UNL1        0.1370
      9 O         143.5310  142.9735  169.6394 O.3     1  UNL1       -0.5054
     10 C         141.8113  141.6397  168.2205 C.ar    1  UNL1        0.0786
     11 C         142.5697  141.9880  166.9740 C.2     1  UNL1        0.2000
     12 O         143.8087  142.8290  167.0603 O.2     1  UNL1       -0.2864
     13 C         142.0890  141.4952  165.6413 C.ar    1  UNL1        0.0564
     14 C         142.8474  141.8435  164.3948 C.ar    1  UNL1        0.0479
     15 C         142.3667  141.3508  163.0621 C.ar    1  UNL1        0.0157
     16 C         141.1277  140.5097  162.9758 C.ar    1  UNL1        0.0157
     17 C         140.3693  140.1614  164.2222 C.ar    1  UNL1        0.0479
     18 C         140.8500  140.6542  165.5550 C.ar    1  UNL1        0.0564
     19 H         138.2747  139.3015  168.4618 H       1  UNL1        0.2922
     20 H         143.8313  143.2813  170.4720 H       1  UNL1        0.2922
     21 N         144.0864  142.6846  164.4811 N.pl3   1  UNL1       -0.3315
     22 H         144.6409  142.6621  165.2943 H       1  UNL1        0.1469
     23 C         144.4806  143.5598  163.3285 C.3     1  UNL1        0.1044
     24 C         143.7836  144.8697  163.1088 C.3     1  UNL1        0.0901
     25 N         142.6661  144.9670  162.1129 N.3     1  UNL1       -0.2940
     26 H         142.6915  144.1118  161.5575 H       1  UNL1        0.1234
     27 C         141.2525  145.1344  162.5858 C.3     1  UNL1        0.1008
     28 C         140.8969  144.8276  164.0104 C.3     1  UNL1        0.1542
     29 O         139.5800  145.2795  164.5687 O.3     1  UNL1       -0.3805
     30 H         139.5581  146.2488  164.6011 H       1  UNL1        0.2105
     31 N         139.1303  139.3204  164.1359 N.pl3   1  UNL1       -0.3315
     32 H         138.7413  138.9317  164.9525 H       1  UNL1        0.1469
     33 C         138.4839  139.0715  162.8054 C.3     1  UNL1        0.1044
     34 C         137.5978  140.1165  162.1949 C.3     1  UNL1        0.0901
     35 N         136.8658  141.0863  163.0745 N.3     1  UNL1       -0.2940
     36 H         136.7079  140.6147  163.9650 H       1  UNL1        0.1234
     37 C         137.4764  142.4190  163.3924 C.3     1  UNL1        0.1008
     38 C         137.9229  143.3234  162.2821 C.3     1  UNL1        0.1542
     39 O         137.6681  144.7991  162.3685 O.3     1  UNL1       -0.3805
     40 H         136.7128  144.9646  162.3385 H       1  UNL1        0.2105
@<TRIPOS>BOND
     1     1     2    2
     2     2     3    1
     3     3     4   ar
     4     4     5    1
     5     4     6   ar
     6     6     7   ar
     7     7     8   ar
     8     8     9    1
     9     8    10   ar
    10    10    11    1
    11    11    12    2
    12    11    13    1
    13    13    14   ar
    14    14    21    1
    15    21    23    1
    16    23    24    1
    17    24    25    1
    18    25    27    1
    19    27    28    1
    20    28    29    1
    21    14    15   ar
    22    15    16   ar
    23    16    17   ar
    24    17    31    1
    25    31    33    1
    26    33    34    1
    27    34    35    1
    28    35    37    1
    29    37    38    1
    30    38    39    1
    31    17    18   ar
    32    18     2    1
    33    10     3   ar
    34    18    13   ar
    35     5    19    1
    36     9    20    1
    37    21    22    1
    38    25    26    1
    39    29    30    1
    40    31    32    1
    41    35    36    1
    42    39    40    1
@<TRIPOS>MOLECULE
*****
 40 42 0 0 0
SMALL
GASTEIGER

@<TRIPOS>ATOM
      1 O         143.5212  142.5515  166.5598 O.2     1  UNL1       -0.2864
      2 C         142.3044  141.6803  166.4585 C.2     1  UNL1        0.2000
      3 C         141.4939  141.3784  167.6842 C.ar    1  UNL1        0.0786
      4 C         141.9004  141.9478  169.0110 C.ar    1  UNL1        0.1370
      5 O         143.1172  142.8190  169.1123 O.3     1  UNL1       -0.5054
      6 C         141.0900  141.6459  170.2366 C.ar    1  UNL1        0.0398
      7 C         139.8731  140.7746  170.1353 C.ar    1  UNL1        0.0398
      8 C         139.4667  140.2052  168.8084 C.ar    1  UNL1        0.1370
      9 O         138.2499  139.3340  168.7072 O.3     1  UNL1       -0.5054
     10 C         140.2771  140.5071  167.5829 C.ar    1  UNL1        0.0786
     11 C         139.8707  139.9377  166.2559 C.2     1  UNL1        0.2000
     12 O         138.6539  139.0665  166.1546 O.2     1  UNL1       -0.2864
     13 C         140.6811  140.2396  165.0304 C.ar    1  UNL1        0.0564
     14 C         140.2747  139.6702  163.7034 C.ar    1  UNL1        0.0479
     15 C         141.0851  139.9721  162.4778 C.ar    1  UNL1        0.0157
     16 C         142.3020  140.8434  162.5791 C.ar    1  UNL1        0.0157
     17 C         142.7084  141.4128  163.9060 C.ar    1  UNL1        0.0479
     18 C         141.8979  141.1109  165.1316 C.ar    1  UNL1        0.0564
     19 H         143.6234  143.0076  168.3467 H       1  UNL1        0.2922
     20 H         137.7437  139.1454  169.4727 H       1  UNL1        0.2922
     21 N         139.0579  138.7990  163.6021 N.pl3   1  UNL1       -0.3315
     22 H         138.7993  138.2247  164.3588 H       1  UNL1        0.1469
     23 C         138.2352  138.8026  162.3479 C.3     1  UNL1        0.1044
     24 C         137.5597  140.0640  161.8977 C.3     1  UNL1        0.0901
     25 N         136.8936  140.9575  162.9016 N.3     1  UNL1       -0.2940
     26 H         136.7378  140.3955  163.7384 H       1  UNL1        0.1234
     27 C         137.5701  142.2198  163.3476 C.3     1  UNL1        0.1008
     28 C         137.9233  143.2766  162.3432 C.3     1  UNL1        0.1542
     29 O         137.4744  144.6921  162.5547 O.3     1  UNL1       -0.3805
     30 H         136.5068  144.7357  162.5027 H       1  UNL1        0.2105
     31 N         143.9252  142.2840  164.0073 N.pl3   1  UNL1       -0.3315
     32 H         144.5147  142.2169  164.7929 H       1  UNL1        0.1469
     33 C         144.2438  143.2576  162.9116 C.3     1  UNL1        0.1044
     34 C         143.6734  144.6443  162.9511 C.3     1  UNL1        0.0901
     35 N         142.5314  145.0115  162.0506 N.3     1  UNL1       -0.2940
     36 H         142.3930  144.2256  161.4153 H       1  UNL1        0.1234
     37 C         141.1892  145.3367  162.6360 C.3     1  UNL1        0.1008
     38 C         140.7990  144.7791  163.9728 C.3     1  UNL1        0.1542
     39 O         139.5480  145.2569  164.6485 O.3     1  UNL1       -0.3805
     40 H         139.6454  146.1925  164.8851 H       1  UNL1        0.2105
@<TRIPOS>BOND
     1     1     2    2
     2     2     3    1
     3     3     4   ar
     4     4     5    1
     5     4     6   ar
     6     6     7   ar
     7     7     8   ar
     8     8     9    1
     9     8    10   ar
    10    10    11    1
    11    11    12    2
    12    11    13    1
    13    13    14   ar
    14    14    21    1
    15    21    23    1
    16    23    24    1
    17    24    25    1
    18    25    27    1
    19    27    28    1
    20    28    29    1
    21    14    15   ar
    22    15    16   ar
    23    16    17   ar
    24    17    31    1
    25    31    33    1
    26    33    34    1
    27    34    35    1
    28    35    37    1
    29    37    38    1
    30    38    39    1
    31    17    18   ar
    32    18     2    1
    33    10     3   ar
    34    18    13   ar
    35     5    19    1
    36     9    20    1
    37    21    22    1
    38    25    26    1
    39    29    30    1
    40    31    32    1
    41    35    36    1
    42    39    40    1
@<TRIPOS>MOLECULE
*****
 40 42 0 0 0
SMALL
GASTEIGER

@<TRIPOS>ATOM
      1 O         143.0072  140.0215  164.4428 O.2     1  UNL1       -0.2864
      2 C         141.8350  140.8289  163.9694 C.2     1  UNL1        0.2000
      3 C         140.5805  140.1388  163.5220 C.ar    1  UNL1        0.0786
      4 C         140.4983  138.6413  163.5479 C.ar    1  UNL1        0.1370
      5 O         141.6705  137.8339  164.0212 O.3     1  UNL1       -0.5054
      6 C         139.2439  137.9512  163.1005 C.ar    1  UNL1        0.0398
      7 C         138.0718  138.7586  162.6271 C.ar    1  UNL1        0.0398
      8 C         138.1540  140.2561  162.6012 C.ar    1  UNL1        0.1370
      9 O         136.9818  141.0635  162.1279 O.3     1  UNL1       -0.5054
     10 C         139.4083  140.9462  163.0486 C.ar    1  UNL1        0.0786
     11 C         139.4906  142.4437  163.0227 C.2     1  UNL1        0.2000
     12 O         138.3184  143.2511  162.5494 O.2     1  UNL1       -0.2864
     13 C         140.7450  143.1338  163.4702 C.ar    1  UNL1        0.0564
     14 C         140.8272  144.6314  163.4443 C.ar    1  UNL1        0.0479
     15 C         142.0816  145.3215  163.8917 C.ar    1  UNL1        0.0157
     16 C         143.2538  144.5141  164.3650 C.ar    1  UNL1        0.0157
     17 C         143.1716  143.0166  164.3909 C.ar    1  UNL1        0.0479
     18 C         141.9172  142.3264  163.9435 C.ar    1  UNL1        0.0564
     19 H         142.4541  138.2650  164.3007 H       1  UNL1        0.2922
     20 H         136.1982  140.6324  161.8484 H       1  UNL1        0.2922
     21 N         139.6550  145.4388  162.9709 N.pl3   1  UNL1       -0.3315
     22 H         138.8450  145.5032  163.5268 H       1  UNL1        0.1469
     23 C         139.7170  146.1482  161.6507 C.3     1  UNL1        0.1044
     24 C         140.5332  145.5764  160.5297 C.3     1  UNL1        0.0901
     25 N         139.8574  144.8514  159.4038 N.3     1  UNL1       -0.2940
     26 H         138.8779  145.1357  159.4165 H       1  UNL1        0.1234
     27 C         140.3428  145.0331  157.9962 C.3     1  UNL1        0.1008
     28 C         141.8146  145.0660  157.7088 C.3     1  UNL1        0.1542
     29 O         142.5536  146.3712  157.7287 O.3     1  UNL1       -0.3805
     30 H         142.2345  146.9345  157.0064 H       1  UNL1        0.2105
     31 N         144.3438  142.2092  164.8643 N.pl3   1  UNL1       -0.3315
     32 H         144.3094  141.7570  165.7381 H       1  UNL1        0.1469
     33 C         145.5684  142.0907  164.0063 C.3     1  UNL1        0.1044
     34 C         145.4453  141.6361  162.5821 C.3     1  UNL1        0.0901
     35 N         144.9357  140.2590  162.2759 N.3     1  UNL1       -0.2940
     36 H         144.4020  139.9547  163.0901 H       1  UNL1        0.1234
     37 C         144.0636  140.0315  161.0768 C.3     1  UNL1        0.1008
     38 C         143.6782  138.6361  160.6836 C.3     1  UNL1        0.1542
     39 O         143.4933  137.5842  161.7368 O.3     1  UNL1       -0.3805
     40 H         144.3443  137.4028  162.1656 H       1  UNL1        0.2105
@<TRIPOS>BOND
     1     1     2    2
     2     2     3    1
     3     3     4   ar
     4     4     5    1
     5     4     6   ar
     6     6     7   ar
     7     7     8   ar
     8     8     9    1
     9     8    10   ar
    10    10    11    1
    11    11    12    2
    12    11    13    1
    13    13    14   ar
    14    14    21    1
    15    21    23    1
    16    23    24    1
    17    24    25    1
    18    25    27    1
    19    27    28    1
    20    28    29    1
    21    14    15   ar
    22    15    16   ar
    23    16    17   ar
    24    17    31    1
    25    31    33    1
    26    33    34    1
    27    34    35    1
    28    35    37    1
    29    37    38    1
    30    38    39    1
    31    17    18   ar
    32    18     2    1
    33    10     3   ar
    34    18    13   ar
    35     5    19    1
    36     9    20    1
    37    21    22    1
    38    25    26    1
    39    29    30    1
    40    31    32    1
    41    35    36    1
    42    39    40    1
@<TRIPOS>MOLECULE
*****
 40 42 0 0 0
SMALL
GASTEIGER

@<TRIPOS>ATOM
      1 O         143.2496  142.9842  165.8821 O.2     1  UNL1       -0.2864
      2 C         141.9870  142.1763  165.8252 C.2     1  UNL1        0.2000
      3 C         141.4588  141.5219  167.0673 C.ar    1  UNL1        0.0786
      4 C         142.1931  141.6754  168.3662 C.ar    1  UNL1        0.1370
      5 O         143.4556  142.4833  168.4231 O.3     1  UNL1       -0.5054
      6 C         141.6648  141.0210  169.6082 C.ar    1  UNL1        0.0398
      7 C         140.4023  140.2131  169.5513 C.ar    1  UNL1        0.0398
      8 C         139.6680  140.0595  168.2524 C.ar    1  UNL1        0.1370
      9 O         138.4054  139.2516  168.1955 O.3     1  UNL1       -0.5054
     10 C         140.1962  140.7140  167.0104 C.ar    1  UNL1        0.0786
     11 C         139.4620  140.5605  165.7114 C.2     1  UNL1        0.2000
     12 O         138.1994  139.7525  165.6545 O.2     1  UNL1       -0.2864
     13 C         139.9902  141.2149  164.4694 C.ar    1  UNL1        0.0564
     14 C         139.2559  141.0614  163.1704 C.ar    1  UNL1        0.0479
     15 C         139.7842  141.7158  161.9284 C.ar    1  UNL1        0.0157
     16 C         141.0467  142.5237  161.9853 C.ar    1  UNL1        0.0157
     17 C         141.7810  142.6772  163.2842 C.ar    1  UNL1        0.0479
     18 C         141.2528  142.0228  164.5263 C.ar    1  UNL1        0.0564
     19 H         143.7856  142.8921  167.6473 H       1  UNL1        0.2922
     20 H         138.0754  138.8428  168.9714 H       1  UNL1        0.2922
     21 N         137.9934  140.2534  163.1135 N.pl3   1  UNL1       -0.3315
     22 H         137.2329  140.4871  163.6934 H       1  UNL1        0.1469
     23 C         137.8895  139.0895  162.1730 C.3     1  UNL1        0.1044
     24 C         138.5298  137.7800  162.5268 C.3     1  UNL1        0.0901
     25 N         139.9085  137.4608  162.0296 N.3     1  UNL1       -0.2940
     26 H         140.0450  137.9990  161.1740 H       1  UNL1        0.1234
     27 C         141.1001  137.7246  162.9017 C.3     1  UNL1        0.1008
     28 C         141.0981  137.2711  164.3316 C.3     1  UNL1        0.1542
     29 O         141.8744  138.0363  165.3621 O.3     1  UNL1       -0.3805
     30 H         142.8227  137.9658  165.1708 H       1  UNL1        0.2105
     31 N         143.0436  143.4851  163.3411 N.pl3   1  UNL1       -0.3315
     32 H         143.2858  143.9623  164.1675 H       1  UNL1        0.1469
     33 C         143.9370  143.5660  162.1390 C.3     1  UNL1        0.1044
     34 C         144.7808  142.3881  161.7510 C.3     1  UNL1        0.0901
     35 N         145.9307  141.9708  162.6191 N.3     1  UNL1       -0.2940
     36 H         146.4041  142.8255  162.9117 H       1  UNL1        0.1234
     37 C         145.6801  141.1678  163.8610 C.3     1  UNL1        0.1008
     38 C         144.5934  140.1338  163.8791 C.3     1  UNL1        0.1542
     39 O         144.1744  139.5088  165.1767 O.3     1  UNL1       -0.3805
     40 H         144.9064  138.9812  165.5327 H       1  UNL1        0.2105
@<TRIPOS>BOND
     1     1     2    2
     2     2     3    1
     3     3     4   ar
     4     4     5    1
     5     4     6   ar
     6     6     7   ar
     7     7     8   ar
     8     8     9    1
     9     8    10   ar
    10    10    11    1
    11    11    12    2
    12    11    13    1
    13    13    14   ar
    14    14    21    1
    15    21    23    1
    16    23    24    1
    17    24    25    1
    18    25    27    1
    19    27    28    1
    20    28    29    1
    21    14    15   ar
    22    15    16   ar
    23    16    17   ar
    24    17    31    1
    25    31    33    1
    26    33    34    1
    27    34    35    1
    28    35    37    1
    29    37    38    1
    30    38    39    1
    31    17    18   ar
    32    18     2    1
    33    10     3   ar
    34    18    13   ar
    35     5    19    1
    36     9    20    1
    37    21    22    1
    38    25    26    1
    39    29    30    1
    40    31    32    1
    41    35    36    1
    42    39    40    1
@<TRIPOS>MOLECULE
*****
 40 42 0 0 0
SMALL
GASTEIGER

@<TRIPOS>ATOM
      1 O         138.4913  139.9423  166.0573 O.2     1  UNL1       -0.2864
      2 C         139.7834  140.7023  166.1110 C.2     1  UNL1        0.2000
      3 C         140.5157  140.8455  167.4124 C.ar    1  UNL1        0.0786
      4 C         139.9559  140.2288  168.6598 C.ar    1  UNL1        0.1370
      5 O         138.6638  139.4688  168.6060 O.3     1  UNL1       -0.5054
      6 C         140.6881  140.3720  169.9610 C.ar    1  UNL1        0.0398
      7 C         141.9802  141.1320  170.0148 C.ar    1  UNL1        0.0398
      8 C         142.5401  141.7487  168.7673 C.ar    1  UNL1        0.1370
      9 O         143.8322  142.5087  168.8211 O.3     1  UNL1       -0.5054
     10 C         141.8078  141.6055  167.4661 C.ar    1  UNL1        0.0786
     11 C         142.3676  142.2223  166.2186 C.2     1  UNL1        0.2000
     12 O         143.6597  142.9823  166.2723 O.2     1  UNL1       -0.2864
     13 C         141.6353  142.0790  164.9174 C.ar    1  UNL1        0.0564
     14 C         142.1951  142.6958  163.6698 C.ar    1  UNL1        0.0479
     15 C         141.4629  142.5526  162.3686 C.ar    1  UNL1        0.0157
     16 C         140.1708  141.7926  162.3148 C.ar    1  UNL1        0.0157
     17 C         139.6109  141.1758  163.5623 C.ar    1  UNL1        0.0479
     18 C         140.3432  141.3191  164.8636 C.ar    1  UNL1        0.0564
     19 H         138.2063  139.3793  167.7932 H       1  UNL1        0.2922
     20 H         144.2896  142.5982  169.6339 H       1  UNL1        0.2922
     21 N         143.4872  143.4558  163.7236 N.pl3   1  UNL1       -0.3315
     22 H         143.6280  144.1388  164.4185 H       1  UNL1        0.1469
     23 C         144.5648  143.1752  162.7186 C.3     1  UNL1        0.1044
     24 C         145.4624  141.9862  162.8936 C.3     1  UNL1        0.0901
     25 N         145.0594  140.6536  162.3355 N.3     1  UNL1       -0.2940
     26 H         145.9066  140.2193  161.9693 H       1  UNL1        0.1234
     27 C         144.4002  139.6379  163.2209 C.3     1  UNL1        0.1008
     28 C         144.6226  139.6787  164.7038 C.3     1  UNL1        0.1542
     29 O         143.9315  138.6882  165.5933 O.3     1  UNL1       -0.3805
     30 H         142.9744  138.8439  165.5684 H       1  UNL1        0.2105
     31 N         138.3188  140.4159  163.5085 N.pl3   1  UNL1       -0.3315
     32 H         137.6096  140.6036  164.1650 H       1  UNL1        0.1469
     33 C         138.1073  139.3698  162.4545 C.3     1  UNL1        0.1044
     34 C         138.4596  137.9393  162.7362 C.3     1  UNL1        0.0901
     35 N         138.9405  137.5397  164.0996 N.3     1  UNL1       -0.2940
     36 H         138.5469  136.6187  164.2925 H       1  UNL1        0.1234
     37 C         140.4113  137.4494  164.3795 C.3     1  UNL1        0.1008
     38 C         141.4010  137.8689  163.3332 C.3     1  UNL1        0.1542
     39 O         141.7402  136.9391  162.2060 O.3     1  UNL1       -0.3805
     40 H         142.1963  136.1583  162.5571 H       1  UNL1        0.2105
@<TRIPOS>BOND
     1     1     2    2
     2     2     3    1
     3     3     4   ar
     4     4     5    1
     5     4     6   ar
     6     6     7   ar
     7     7     8   ar
     8     8     9    1
     9     8    10   ar
    10    10    11    1
    11    11    12    2
    12    11    13    1
    13    13    14   ar
    14    14    21    1
    15    21    23    1
    16    23    24    1
    17    24    25    1
    18    25    27    1
    19    27    28    1
    20    28    29    1
    21    14    15   ar
    22    15    16   ar
    23    16    17   ar
    24    17    31    1
    25    31    33    1
    26    33    34    1
    27    34    35    1
    28    35    37    1
    29    37    38    1
    30    38    39    1
    31    17    18   ar
    32    18     2    1
    33    10     3   ar
    34    18    13   ar
    35     5    19    1
    36     9    20    1
    37    21    22    1
    38    25    26    1
    39    29    30    1
    40    31    32    1
    41    35    36    1
    42    39    40    1
@<TRIPOS>MOLECULE
*****
 40 42 0 0 0
SMALL
GASTEIGER

@<TRIPOS>ATOM
      1 O         141.3284  140.0585  165.6101 O.2     1  UNL1       -0.2864
      2 C         141.6751  141.2865  164.8216 C.2     1  UNL1        0.2000
      3 C         143.0529  141.4470  164.2506 C.ar    1  UNL1        0.0786
      4 C         144.0839  140.3796  164.4681 C.ar    1  UNL1        0.1370
      5 O         143.7373  139.1515  165.2566 O.3     1  UNL1       -0.5054
      6 C         145.4616  140.5401  163.8970 C.ar    1  UNL1        0.0398
      7 C         145.8083  141.7681  163.1085 C.ar    1  UNL1        0.0398
      8 C         144.7772  142.8356  162.8910 C.ar    1  UNL1        0.1370
      9 O         145.1238  144.0636  162.1024 O.3     1  UNL1       -0.5054
     10 C         143.3995  142.6751  163.4620 C.ar    1  UNL1        0.0786
     11 C         142.3683  143.7426  163.2445 C.2     1  UNL1        0.2000
     12 O         142.7150  144.9706  162.4560 O.2     1  UNL1       -0.2864
     13 C         140.9906  143.5820  163.8155 C.ar    1  UNL1        0.0564
     14 C         139.9595  144.6495  163.5980 C.ar    1  UNL1        0.0479
     15 C         138.5818  144.4890  164.1691 C.ar    1  UNL1        0.0157
     16 C         138.2351  143.2609  164.9576 C.ar    1  UNL1        0.0157
     17 C         139.2662  142.1935  165.1751 C.ar    1  UNL1        0.0479
     18 C         140.6440  142.3540  164.6041 C.ar    1  UNL1        0.0564
     19 H         142.8767  139.0513  165.6133 H       1  UNL1        0.2922
     20 H         145.9844  144.1639  161.7457 H       1  UNL1        0.2922
     21 N         140.3061  145.8775  162.8095 N.pl3   1  UNL1       -0.3315
     22 H         140.9819  146.5070  163.1505 H       1  UNL1        0.1469
     23 C         139.6231  146.1465  161.5014 C.3     1  UNL1        0.1044
     24 C         140.0547  145.4144  160.2654 C.3     1  UNL1        0.0901
     25 N         141.4808  145.4922  159.8071 N.3     1  UNL1       -0.2940
     26 H         141.9232  144.6117  160.0705 H       1  UNL1        0.1234
     27 C         141.7914  145.7161  158.3568 C.3     1  UNL1        0.1008
     28 C         140.6872  145.6960  157.3416 C.3     1  UNL1        0.1542
     29 O         140.0488  146.9804  156.9024 O.3     1  UNL1       -0.3805
     30 H         139.5751  147.3780  157.6497 H       1  UNL1        0.2105
     31 N         138.9196  140.9654  165.9637 N.pl3   1  UNL1       -0.3315
     32 H         139.2430  140.8666  166.8883 H       1  UNL1        0.1469
     33 C         138.0803  139.8880  165.3435 C.3     1  UNL1        0.1044
     34 C         138.2998  138.4538  165.7241 C.3     1  UNL1        0.0901
     35 N         139.3395  137.6397  165.0126 N.3     1  UNL1       -0.2940
     36 H         139.2283  136.6770  165.3308 H       1  UNL1        0.1234
     37 C         139.3644  137.6000  163.5133 C.3     1  UNL1        0.1008
     38 C         140.6452  137.8608  162.7773 C.3     1  UNL1        0.1542
     39 O         141.9544  137.8054  163.5074 O.3     1  UNL1       -0.3805
     40 H         141.9921  138.5235  164.1584 H       1  UNL1        0.2105
@<TRIPOS>BOND
     1     1     2    2
     2     2     3    1
     3     3     4   ar
     4     4     5    1
     5     4     6   ar
     6     6     7   ar
     7     7     8   ar
     8     8     9    1
     9     8    10   ar
    10    10    11    1
    11    11    12    2
    12    11    13    1
    13    13    14   ar
    14    14    21    1
    15    21    23    1
    16    23    24    1
    17    24    25    1
    18    25    27    1
    19    27    28    1
    20    28    29    1
    21    14    15   ar
    22    15    16   ar
    23    16    17   ar
    24    17    31    1
    25    31    33    1
    26    33    34    1
    27    34    35    1
    28    35    37    1
    29    37    38    1
    30    38    39    1
    31    17    18   ar
    32    18     2    1
    33    10     3   ar
    34    18    13   ar
    35     5    19    1
    36     9    20    1
    37    21    22    1
    38    25    26    1
    39    29    30    1
    40    31    32    1
    41    35    36    1
    42    39    40    1
@<TRIPOS>MOLECULE
*****
 40 42 0 0 0
SMALL
GASTEIGER

@<TRIPOS>ATOM
      1 O         141.9838  142.2149  167.1630 O.2     1  UNL1       -0.2864
      2 C         141.9783  141.3281  165.9532 C.2     1  UNL1        0.2000
      3 C         143.0915  141.4187  164.9518 C.ar    1  UNL1        0.0786
      4 C         144.2101  142.3960  165.1602 C.ar    1  UNL1        0.1370
      5 O         144.2156  143.2828  166.3700 O.3     1  UNL1       -0.5054
      6 C         145.3232  142.4865  164.1588 C.ar    1  UNL1        0.0398
      7 C         145.3176  141.5997  162.9491 C.ar    1  UNL1        0.0398
      8 C         144.1991  140.6224  162.7407 C.ar    1  UNL1        0.1370
      9 O         144.1935  139.7355  161.5309 O.3     1  UNL1       -0.5054
     10 C         143.0860  140.5318  163.7420 C.ar    1  UNL1        0.0786
     11 C         141.9673  139.5544  163.5337 C.2     1  UNL1        0.2000
     12 O         141.9618  138.6676  162.3239 O.2     1  UNL1       -0.2864
     13 C         140.8542  139.4639  164.5350 C.ar    1  UNL1        0.0564
     14 C         139.7355  138.4865  164.3267 C.ar    1  UNL1        0.0479
     15 C         138.6224  138.3960  165.3280 C.ar    1  UNL1        0.0157
     16 C         138.6279  139.2828  166.5378 C.ar    1  UNL1        0.0157
     17 C         139.7465  140.2602  166.7462 C.ar    1  UNL1        0.0479
     18 C         140.8597  140.3507  165.7448 C.ar    1  UNL1        0.0564
     19 H         143.5202  143.2263  166.9955 H       1  UNL1        0.2922
     20 H         144.8889  139.7921  160.9054 H       1  UNL1        0.2922
     21 N         139.7300  137.5997  163.1169 N.pl3   1  UNL1       -0.3315
     22 H         140.4184  136.9035  163.0138 H       1  UNL1        0.1469
     23 C         138.6756  137.7736  162.0643 C.3     1  UNL1        0.1044
     24 C         138.9876  138.5321  160.8083 C.3     1  UNL1        0.0901
     25 N         139.3075  139.9960  160.8761 N.3     1  UNL1       -0.2940
     26 H         139.6723  140.2603  159.9609 H       1  UNL1        0.1234
     27 C         138.2310  140.9840  161.2149 C.3     1  UNL1        0.1008
     28 C         137.9889  141.3685  162.6445 C.3     1  UNL1        0.1542
     29 O         136.5946  141.3598  163.1977 O.3     1  UNL1       -0.3805
     30 H         136.0667  142.0422  162.7544 H       1  UNL1        0.2105
     31 N         139.7520  141.1470  167.9560 N.pl3   1  UNL1       -0.3315
     32 H         139.8497  142.1211  167.8518 H       1  UNL1        0.1469
     33 C         139.6087  140.5497  169.3244 C.3     1  UNL1        0.1044
     34 C         140.7618  139.8219  169.9496 C.3     1  UNL1        0.0901
     35 N         142.1534  140.0367  169.4326 N.3     1  UNL1       -0.2940
     36 H         142.0667  140.5658  168.5648 H       1  UNL1        0.1234
     37 C         143.1650  140.7530  170.2772 C.3     1  UNL1        0.1008
     38 C         143.3012  142.2438  170.1819 C.3     1  UNL1        0.1542
     39 O         144.1846  142.8507  169.1325 O.3     1  UNL1       -0.3805
     40 H         145.1083  142.6145  169.3114 H       1  UNL1        0.2105
@<TRIPOS>BOND
     1     1     2    2
     2     2     3    1
     3     3     4   ar
     4     4     5    1
     5     4     6   ar
     6     6     7   ar
     7     7     8   ar
     8     8     9    1
     9     8    10   ar
    10    10    11    1
    11    11    12    2
    12    11    13    1
    13    13    14   ar
    14    14    21    1
    15    21    23    1
    16    23    24    1
    17    24    25    1
    18    25    27    1
    19    27    28    1
    20    28    29    1
    21    14    15   ar
    22    15    16   ar
    23    16    17   ar
    24    17    31    1
    25    31    33    1
    26    33    34    1
    27    34    35    1
    28    35    37    1
    29    37    38    1
    30    38    39    1
    31    17    18   ar
    32    18     2    1
    33    10     3   ar
    34    18    13   ar
    35     5    19    1
    36     9    20    1
    37    21    22    1
    38    25    26    1
    39    29    30    1
    40    31    32    1
    41    35    36    1
    42    39    40    1
@<TRIPOS>MOLECULE
*****
 40 42 0 0 0
SMALL
GASTEIGER

@<TRIPOS>ATOM
      1 O         138.6229  139.8674  165.9881 O.2     1  UNL1       -0.2864
      2 C         139.9165  140.6185  166.0998 C.2     1  UNL1        0.2000
      3 C         140.5474  140.8298  167.4442 C.ar    1  UNL1        0.0786
      4 C         139.8847  140.2899  168.6768 C.ar    1  UNL1        0.1370
      5 O         138.5911  139.5388  168.5651 O.3     1  UNL1       -0.5054
      6 C         140.5156  140.5011  170.0212 C.ar    1  UNL1        0.0398
      7 C         141.8092  141.2522  170.1329 C.ar    1  UNL1        0.0398
      8 C         142.4719  141.7921  168.9003 C.ar    1  UNL1        0.1370
      9 O         143.7655  142.5432  169.0120 O.3     1  UNL1       -0.5054
     10 C         141.8410  141.5809  167.5560 C.ar    1  UNL1        0.0786
     11 C         142.5036  142.1208  166.3233 C.2     1  UNL1        0.2000
     12 O         143.7972  142.8719  166.4350 O.2     1  UNL1       -0.2864
     13 C         141.8727  141.9095  164.9789 C.ar    1  UNL1        0.0564
     14 C         142.5354  142.4494  163.7462 C.ar    1  UNL1        0.0479
     15 C         141.9044  142.2382  162.4019 C.ar    1  UNL1        0.0157
     16 C         140.6109  141.4871  162.2902 C.ar    1  UNL1        0.0157
     17 C         139.9482  140.9472  163.5228 C.ar    1  UNL1        0.0479
     18 C         140.5791  141.1584  164.8672 C.ar    1  UNL1        0.0564
     19 H         138.1970  139.4068  167.7253 H       1  UNL1        0.2922
     20 H         144.1596  142.6752  169.8518 H       1  UNL1        0.2922
     21 N         143.8289  143.2006  163.8580 N.pl3   1  UNL1       -0.3315
     22 H         143.8813  144.0105  164.4152 H       1  UNL1        0.1469
     23 C         145.0427  142.7176  163.1208 C.3     1  UNL1        0.1044
     24 C         145.8020  141.5265  163.6253 C.3     1  UNL1        0.0901
     25 N         145.2468  140.1464  163.4326 N.3     1  UNL1       -0.2940
     26 H         146.0257  139.5528  163.1476 H       1  UNL1        0.1234
     27 C         144.5632  139.4474  164.5702 C.3     1  UNL1        0.1008
     28 C         143.2869  138.6965  164.3307 C.3     1  UNL1        0.1542
     29 O         142.5026  138.1612  165.4919 O.3     1  UNL1       -0.3805
     30 H         143.0164  137.4699  165.9380 H       1  UNL1        0.2105
     31 N         138.6546  140.1961  163.4111 N.pl3   1  UNL1       -0.3315
     32 H         138.6279  139.2307  163.6021 H       1  UNL1        0.1469
     33 C         137.4018  140.9159  163.0083 C.3     1  UNL1        0.1044
     34 C         137.2117  142.3564  163.3808 C.3     1  UNL1        0.0901
     35 N         137.4796  143.4336  162.3720 N.3     1  UNL1       -0.2940
     36 H         136.6138  143.9630  162.2695 H       1  UNL1        0.1234
     37 C         138.5720  144.4328  162.6139 C.3     1  UNL1        0.1008
     38 C         139.1392  144.6049  163.9918 C.3     1  UNL1        0.1542
     39 O         140.4514  145.3069  164.1804 O.3     1  UNL1       -0.3805
     40 H         141.1601  144.7812  163.7776 H       1  UNL1        0.2105
@<TRIPOS>BOND
     1     1     2    2
     2     2     3    1
     3     3     4   ar
     4     4     5    1
     5     4     6   ar
     6     6     7   ar
     7     7     8   ar
     8     8     9    1
     9     8    10   ar
    10    10    11    1
    11    11    12    2
    12    11    13    1
    13    13    14   ar
    14    14    21    1
    15    21    23    1
    16    23    24    1
    17    24    25    1
    18    25    27    1
    19    27    28    1
    20    28    29    1
    21    14    15   ar
    22    15    16   ar
    23    16    17   ar
    24    17    31    1
    25    31    33    1
    26    33    34    1
    27    34    35    1
    28    35    37    1
    29    37    38    1
    30    38    39    1
    31    17    18   ar
    32    18     2    1
    33    10     3   ar
    34    18    13   ar
    35     5    19    1
    36     9    20    1
    37    21    22    1
    38    25    26    1
    39    29    30    1
    40    31    32    1
    41    35    36    1
    42    39    40    1
@<TRIPOS>MOLECULE
*****
 40 42 0 0 0
SMALL
GASTEIGER

@<TRIPOS>ATOM
      1 O         140.1338  143.0924  166.1821 O.2     1  UNL1       -0.2864
      2 C         140.9548  142.6779  164.9971 C.2     1  UNL1        0.2000
      3 C         140.9430  143.5095  163.7487 C.ar    1  UNL1        0.0786
      4 C         140.1103  144.7555  163.6854 C.ar    1  UNL1        0.1370
      5 O         139.2894  145.1699  164.8704 O.3     1  UNL1       -0.5054
      6 C         140.0986  145.5870  162.4370 C.ar    1  UNL1        0.0398
      7 C         140.9196  145.1725  161.2520 C.ar    1  UNL1        0.0398
      8 C         141.7523  143.9265  161.3154 C.ar    1  UNL1        0.1370
      9 O         142.5733  143.5120  160.1304 O.3     1  UNL1       -0.5054
     10 C         141.7640  143.0950  162.5637 C.ar    1  UNL1        0.0786
     11 C         142.5968  141.8489  162.6271 C.2     1  UNL1        0.2000
     12 O         143.4177  141.4344  161.4422 O.2     1  UNL1       -0.2864
     13 C         142.6085  141.0174  163.8755 C.ar    1  UNL1        0.0564
     14 C         143.4412  139.7714  163.9389 C.ar    1  UNL1        0.0479
     15 C         143.4530  138.9399  165.1873 C.ar    1  UNL1        0.0157
     16 C         142.6320  139.3543  166.3722 C.ar    1  UNL1        0.0157
     17 C         141.7993  140.6003  166.3089 C.ar    1  UNL1        0.0479
     18 C         141.7875  141.4319  165.0605 C.ar    1  UNL1        0.0564
     19 H         139.2967  144.6505  165.6502 H       1  UNL1        0.2922
     20 H         142.5659  144.0314  159.3506 H       1  UNL1        0.2922
     21 N         144.2622  139.3569  162.7539 N.pl3   1  UNL1       -0.3315
     22 H         145.0459  139.8898  162.4874 H       1  UNL1        0.1469
     23 C         143.8892  138.1305  161.9751 C.3     1  UNL1        0.1044
     24 C         142.4783  137.9431  161.5015 C.3     1  UNL1        0.0901
     25 N         141.5151  137.1320  162.3165 N.3     1  UNL1       -0.2940
     26 H         142.0340  136.7792  163.1206 H       1  UNL1        0.1234
     27 C         140.2658  137.7666  162.8519 C.3     1  UNL1        0.1008
     28 C         139.9925  137.7569  164.3268 C.3     1  UNL1        0.1542
     29 O         139.0201  138.7355  164.9158 O.3     1  UNL1       -0.3805
     30 H         139.3698  139.6354  164.8214 H       1  UNL1        0.2105
     31 N         140.9783  141.0148  167.4939 N.pl3   1  UNL1       -0.3315
     32 H         141.1028  141.9070  167.8912 H       1  UNL1        0.1469
     33 C         139.9677  140.0701  168.0735 C.3     1  UNL1        0.1044
     34 C         139.5006  140.2468  169.4880 C.3     1  UNL1        0.0901
     35 N         140.3560  139.7722  170.6251 N.3     1  UNL1       -0.2940
     36 H         140.6777  138.8356  170.3807 H       1  UNL1        0.1234
     37 C         141.5701  140.5556  171.0280 C.3     1  UNL1        0.1008
     38 C         142.9217  140.1646  170.5078 C.3     1  UNL1        0.1542
     39 O         143.9209  139.5224  171.4238 O.3     1  UNL1       -0.3805
     40 H         144.1874  140.1569  172.1074 H       1  UNL1        0.2105
@<TRIPOS>BOND
     1     1     2    2
     2     2     3    1
     3     3     4   ar
     4     4     5    1
     5     4     6   ar
     6     6     7   ar
     7     7     8   ar
     8     8     9    1
     9     8    10   ar
    10    10    11    1
    11    11    12    2
    12    11    13    1
    13    13    14   ar
    14    14    21    1
    15    21    23    1
    16    23    24    1
    17    24    25    1
    18    25    27    1
    19    27    28    1
    20    28    29    1
    21    14    15   ar
    22    15    16   ar
    23    16    17   ar
    24    17    31    1
    25    31    33    1
    26    33    34    1
    27    34    35    1
    28    35    37    1
    29    37    38    1
    30    38    39    1
    31    17    18   ar
    32    18     2    1
    33    10     3   ar
    34    18    13   ar
    35     5    19    1
    36     9    20    1
    37    21    22    1
    38    25    26    1
    39    29    30    1
    40    31    32    1
    41    35    36    1
    42    39    40    1
