@<TRIPOS>MOLECULE
*****
 24 26 0 0 0
SMALL
GASTEIGER

@<TRIPOS>ATOM
      1 P         141.0178  141.4409  164.5971 P.3     1  UNL1        0.2234
      2 O         139.9040  141.9344  163.7219 O.2     1  UNL1       -0.2905
      3 C         140.2153  140.2178  164.9289 C.ar    1  UNL1        0.0496
      4 C         140.6979  138.8645  164.4980 C.ar    1  UNL1        0.0046
      5 C         139.8954  137.6414  164.8298 C.ar    1  UNL1        0.0002
      6 C         138.6103  137.7717  165.5925 C.ar    1  UNL1        0.0000
      7 C         138.1277  139.1250  166.0233 C.ar    1  UNL1        0.0002
      8 C         138.9302  140.3481  165.6916 C.ar    1  UNL1        0.0046
      9 C         141.8203  142.6639  164.2654 C.ar    1  UNL1        0.0496
     10 C         141.1507  144.0045  164.1965 C.ar    1  UNL1        0.0046
     11 C         141.9532  145.2275  163.8648 C.ar    1  UNL1        0.0002
     12 C         143.4253  145.1101  163.6018 C.ar    1  UNL1        0.0000
     13 C         144.0949  143.7696  163.6706 C.ar    1  UNL1        0.0002
     14 C         143.2924  142.5465  164.0024 C.ar    1  UNL1        0.0046
     15 N         142.1316  140.9475  165.4723 N.pl3   1  UNL1       -0.2869
     16 H         142.9390  140.5556  165.0675 H       1  UNL1        0.1540
     17 C         141.2833  142.3732  169.0776 C.ar    1  UNL1        0.0697
     18 C         141.7827  141.2582  169.9480 C.ar    1  UNL1        0.0104
     19 C         142.3983  140.0397  169.3265 C.ar    1  UNL1        0.0020
     20 C         142.5146  139.9361  167.8346 C.ar    1  UNL1        0.0147
     21 C         142.0153  141.0510  166.9642 C.ar    1  UNL1        0.0504
     22 C         141.3996  142.2696  167.5857 C.ar    1  UNL1        0.0249
     23 N         140.0520  144.8101  170.3205 N.1     1  UNL1       -0.1908
     24 C         140.6677  143.5916  169.6990 C.1     1  UNL1        0.1005
@<TRIPOS>BOND
     1    23    24    3
     2    24    17    1
     3    17    18   ar
     4    18    19   ar
     5    19    20   ar
     6    20    21   ar
     7    21    15    1
     8    15     1    1
     9     1     2    2
    10     1     3    1
    11     3     4   ar
    12     4     5   ar
    13     5     6   ar
    14     6     7   ar
    15     7     8   ar
    16     1     9    1
    17     9    10   ar
    18    10    11   ar
    19    11    12   ar
    20    12    13   ar
    21    13    14   ar
    22    21    22   ar
    23    22    17   ar
    24     8     3   ar
    25    14     9   ar
    26    15    16    1
@<TRIPOS>MOLECULE
*****
 24 26 0 0 0
SMALL
GASTEIGER

@<TRIPOS>ATOM
      1 P         141.0171  141.4332  164.6320 P.3     1  UNL1        0.2234
      2 O         139.9026  141.9315  163.7604 O.2     1  UNL1       -0.2905
      3 C         141.8183  142.6593  164.3086 C.ar    1  UNL1        0.0496
      4 C         143.3032  142.5573  164.1218 C.ar    1  UNL1        0.0046
      5 C         144.1044  143.7834  163.7984 C.ar    1  UNL1        0.0002
      6 C         143.4208  145.1116  163.6617 C.ar    1  UNL1        0.0000
      7 C         141.9360  145.2137  163.8485 C.ar    1  UNL1        0.0002
      8 C         141.1348  143.9875  164.1720 C.ar    1  UNL1        0.0046
      9 C         140.2159  140.2071  164.9554 C.ar    1  UNL1        0.0496
     10 C         138.9275  140.3314  165.7135 C.ar    1  UNL1        0.0046
     11 C         138.1263  139.1053  166.0369 C.ar    1  UNL1        0.0002
     12 C         138.6134  137.7548  165.6023 C.ar    1  UNL1        0.0000
     13 C         139.9018  137.6304  164.8443 C.ar    1  UNL1        0.0002
     14 C         140.7031  138.8566  164.5208 C.ar    1  UNL1        0.0046
     15 N         142.1316  140.9349  165.5035 N.pl3   1  UNL1       -0.2869
     16 H         142.9325  140.5324  165.0964 H       1  UNL1        0.1540
     17 C         141.2938  142.3805  169.1033 C.ar    1  UNL1        0.0697
     18 C         141.8140  141.2793  169.9791 C.ar    1  UNL1        0.0104
     19 C         142.4400  140.0634  169.3630 C.ar    1  UNL1        0.0020
     20 C         142.5459  139.9486  167.8711 C.ar    1  UNL1        0.0147
     21 C         142.0257  141.0497  166.9954 C.ar    1  UNL1        0.0504
     22 C         141.3997  142.2657  167.6115 C.ar    1  UNL1        0.0249
     23 N         140.0418  144.8123  170.3355 N.1     1  UNL1       -0.1908
     24 C         140.6678  143.5964  169.7194 C.1     1  UNL1        0.1005
@<TRIPOS>BOND
     1    23    24    3
     2    24    17    1
     3    17    18   ar
     4    18    19   ar
     5    19    20   ar
     6    20    21   ar
     7    21    15    1
     8    15     1    1
     9     1     2    2
    10     1     3    1
    11     3     4   ar
    12     4     5   ar
    13     5     6   ar
    14     6     7   ar
    15     7     8   ar
    16     1     9    1
    17     9    10   ar
    18    10    11   ar
    19    11    12   ar
    20    12    13   ar
    21    13    14   ar
    22    21    22   ar
    23    22    17   ar
    24     8     3   ar
    25    14     9   ar
    26    15    16    1
@<TRIPOS>MOLECULE
*****
 24 26 0 0 0
SMALL
GASTEIGER

@<TRIPOS>ATOM
      1 P         141.4357  141.7517  164.6663 P.3     1  UNL1        0.2234
      2 O         140.8741  140.8827  163.5802 O.2     1  UNL1       -0.2905
      3 C         142.6916  140.9316  164.6732 C.ar    1  UNL1        0.0496
      4 C         142.6726  139.5354  165.2213 C.ar    1  UNL1        0.0046
      5 C         143.9284  138.7152  165.2282 C.ar    1  UNL1        0.0002
      6 C         145.2033  139.2911  164.6870 C.ar    1  UNL1        0.0000
      7 C         145.2224  140.6872  164.1389 C.ar    1  UNL1        0.0002
      8 C         143.9665  141.5075  164.1320 C.ar    1  UNL1        0.0046
      9 C         140.1799  142.5719  164.6594 C.ar    1  UNL1        0.0496
     10 C         140.2541  144.0588  164.8431 C.ar    1  UNL1        0.0046
     11 C         138.9983  144.8790  164.8362 C.ar    1  UNL1        0.0002
     12 C         137.6681  144.2124  164.6457 C.ar    1  UNL1        0.0000
     13 C         137.5938  142.7255  164.4620 C.ar    1  UNL1        0.0002
     14 C         138.8497  141.9053  164.4689 C.ar    1  UNL1        0.0046
     15 N         141.9973  142.6207  165.7523 N.pl3   1  UNL1       -0.2869
     16 H         142.3817  143.4994  165.5303 H       1  UNL1        0.1540
     17 C         140.6914  141.1018  169.1784 C.ar    1  UNL1        0.0697
     18 C         141.9247  141.2114  170.0253 C.ar    1  UNL1        0.0104
     19 C         143.1820  141.7907  169.4479 C.ar    1  UNL1        0.0020
     20 C         143.2062  142.2605  168.0236 C.ar    1  UNL1        0.0147
     21 C         141.9731  142.1509  167.1766 C.ar    1  UNL1        0.0504
     22 C         140.7156  141.5716  167.7540 C.ar    1  UNL1        0.0249
     23 N         138.1768  139.9431  170.3332 N.1     1  UNL1       -0.1908
     24 C         139.4341  140.5225  169.7558 C.1     1  UNL1        0.1005
@<TRIPOS>BOND
     1    23    24    3
     2    24    17    1
     3    17    18   ar
     4    18    19   ar
     5    19    20   ar
     6    20    21   ar
     7    21    15    1
     8    15     1    1
     9     1     2    2
    10     1     3    1
    11     3     4   ar
    12     4     5   ar
    13     5     6   ar
    14     6     7   ar
    15     7     8   ar
    16     1     9    1
    17     9    10   ar
    18    10    11   ar
    19    11    12   ar
    20    12    13   ar
    21    13    14   ar
    22    21    22   ar
    23    22    17   ar
    24     8     3   ar
    25    14     9   ar
    26    15    16    1
@<TRIPOS>MOLECULE
*****
 24 26 0 0 0
SMALL
GASTEIGER

@<TRIPOS>ATOM
      1 P         142.2769  141.3368  166.8435 P.3     1  UNL1        0.2234
      2 O         142.8254  140.0746  167.4402 O.2     1  UNL1       -0.2905
      3 C         143.2823  141.2492  165.7338 C.ar    1  UNL1        0.0496
      4 C         143.5541  139.9316  165.0703 C.ar    1  UNL1        0.0046
      5 C         144.5595  139.8439  163.9606 C.ar    1  UNL1        0.0002
      6 C         145.2931  141.0738  163.5144 C.ar    1  UNL1        0.0000
      7 C         145.0214  142.3914  164.1778 C.ar    1  UNL1        0.0002
      8 C         144.0159  142.4791  165.2875 C.ar    1  UNL1        0.0046
      9 C         141.2715  141.4244  167.9532 C.ar    1  UNL1        0.0496
     10 C         141.1861  142.6654  168.7916 C.ar    1  UNL1        0.0046
     11 C         140.1807  142.7530  169.9013 C.ar    1  UNL1        0.0002
     12 C         139.2607  141.5998  170.1726 C.ar    1  UNL1        0.0000
     13 C         139.3461  140.3589  169.3343 C.ar    1  UNL1        0.0002
     14 C         140.3516  140.2712  168.2246 C.ar    1  UNL1        0.0046
     15 N         141.7284  142.5990  166.2469 N.pl3   1  UNL1       -0.2869
     16 H         142.2220  143.4451  166.3455 H       1  UNL1        0.1540
     17 C         138.7440  141.3321  163.9582 C.ar    1  UNL1        0.0697
     18 C         137.8269  142.5182  164.0060 C.ar    1  UNL1        0.0104
     19 C         138.2104  143.7312  164.8007 C.ar    1  UNL1        0.0020
     20 C         139.5109  143.7581  165.5476 C.ar    1  UNL1        0.0147
     21 C         140.4279  142.5721  165.4999 C.ar    1  UNL1        0.0504
     22 C         140.0445  141.3590  164.7052 C.ar    1  UNL1        0.0249
     23 N         137.9770  138.9062  162.3688 N.1     1  UNL1       -0.1908
     24 C         138.3605  140.1191  163.1635 C.1     1  UNL1        0.1005
@<TRIPOS>BOND
     1    23    24    3
     2    24    17    1
     3    17    18   ar
     4    18    19   ar
     5    19    20   ar
     6    20    21   ar
     7    21    15    1
     8    15     1    1
     9     1     2    2
    10     1     3    1
    11     3     4   ar
    12     4     5   ar
    13     5     6   ar
    14     6     7   ar
    15     7     8   ar
    16     1     9    1
    17     9    10   ar
    18    10    11   ar
    19    11    12   ar
    20    12    13   ar
    21    13    14   ar
    22    21    22   ar
    23    22    17   ar
    24     8     3   ar
    25    14     9   ar
    26    15    16    1
@<TRIPOS>MOLECULE
*****
 24 26 0 0 0
SMALL
GASTEIGER

@<TRIPOS>ATOM
      1 P         142.2891  141.3283  166.8195 P.3     1  UNL1        0.2234
      2 O         142.8319  140.0615  167.4118 O.2     1  UNL1       -0.2905
      3 C         141.2816  141.4146  167.9274 C.ar    1  UNL1        0.0496
      4 C         140.3606  140.2613  168.1953 C.ar    1  UNL1        0.0046
      5 C         139.3531  140.3476  169.3031 C.ar    1  UNL1        0.0002
      6 C         139.2665  141.5873  170.1432 C.ar    1  UNL1        0.0000
      7 C         140.1874  142.7406  169.8754 C.ar    1  UNL1        0.0002
      8 C         141.1950  142.6543  168.7675 C.ar    1  UNL1        0.0046
      9 C         143.2966  141.2419  165.7116 C.ar    1  UNL1        0.0496
     10 C         144.0255  142.4738  165.2630 C.ar    1  UNL1        0.0046
     11 C         145.0330  142.3875  164.1551 C.ar    1  UNL1        0.0002
     12 C         145.3117  141.0693  163.4958 C.ar    1  UNL1        0.0000
     13 C         144.5828  139.8374  163.9444 C.ar    1  UNL1        0.0002
     14 C         143.5753  139.9237  165.0523 C.ar    1  UNL1        0.0046
     15 N         141.7464  142.5950  166.2272 N.pl3   1  UNL1       -0.2869
     16 H         142.2469  143.4373  166.3233 H       1  UNL1        0.1540
     17 C         138.7426  141.3561  163.9485 C.ar    1  UNL1        0.0697
     18 C         137.8302  142.5451  164.0110 C.ar    1  UNL1        0.0104
     19 C         138.2233  143.7507  164.8123 C.ar    1  UNL1        0.0020
     20 C         139.5286  143.7673  165.5510 C.ar    1  UNL1        0.0147
     21 C         140.4410  142.5784  165.4885 C.ar    1  UNL1        0.0504
     22 C         140.0480  141.3727  164.6872 C.ar    1  UNL1        0.0249
     23 N         137.9565  138.9450  162.3459 N.1     1  UNL1       -0.1908
     24 C         138.3496  140.1505  163.1472 C.1     1  UNL1        0.1005
@<TRIPOS>BOND
     1    23    24    3
     2    24    17    1
     3    17    18   ar
     4    18    19   ar
     5    19    20   ar
     6    20    21   ar
     7    21    15    1
     8    15     1    1
     9     1     2    2
    10     1     3    1
    11     3     4   ar
    12     4     5   ar
    13     5     6   ar
    14     6     7   ar
    15     7     8   ar
    16     1     9    1
    17     9    10   ar
    18    10    11   ar
    19    11    12   ar
    20    12    13   ar
    21    13    14   ar
    22    21    22   ar
    23    22    17   ar
    24     8     3   ar
    25    14     9   ar
    26    15    16    1
@<TRIPOS>MOLECULE
*****
 24 26 0 0 0
SMALL
GASTEIGER

@<TRIPOS>ATOM
      1 P         141.0871  140.4447  167.1161 P.3     1  UNL1        0.2234
      2 O         139.8893  140.0713  167.9383 O.2     1  UNL1       -0.2905
      3 C         141.5139  141.4142  168.1781 C.ar    1  UNL1        0.0496
      4 C         142.8861  141.3155  168.7760 C.ar    1  UNL1        0.0046
      5 C         143.3129  142.2850  169.8380 C.ar    1  UNL1        0.0002
      6 C         142.3676  143.3532  170.3022 C.ar    1  UNL1        0.0000
      7 C         140.9955  143.4518  169.7043 C.ar    1  UNL1        0.0002
      8 C         140.5686  142.4823  168.6422 C.ar    1  UNL1        0.0046
      9 C         140.6603  139.4752  166.0541 C.ar    1  UNL1        0.0496
     10 C         141.6709  138.5684  165.4164 C.ar    1  UNL1        0.0046
     11 C         141.2441  137.5989  164.3545 C.ar    1  UNL1        0.0002
     12 C         139.8067  137.5362  163.9301 C.ar    1  UNL1        0.0000
     13 C         138.7962  138.4429  164.5677 C.ar    1  UNL1        0.0002
     14 C         139.2230  139.4125  165.6297 C.ar    1  UNL1        0.0046
     15 N         142.2849  140.8180  166.2939 N.pl3   1  UNL1       -0.2869
     16 H         143.0757  140.2318  166.2818 H       1  UNL1        0.1540
     17 C         141.0041  143.8160  164.0308 C.ar    1  UNL1        0.0697
     18 C         142.2634  144.6176  163.8830 C.ar    1  UNL1        0.0104
     19 C         143.5297  144.1526  164.5388 C.ar    1  UNL1        0.0020
     20 C         143.5369  142.8861  165.3424 C.ar    1  UNL1        0.0147
     21 C         142.2777  142.0845  165.4903 C.ar    1  UNL1        0.0504
     22 C         141.0112  142.5495  164.8345 C.ar    1  UNL1        0.0249
     23 N         138.4714  144.7460  162.7193 N.1     1  UNL1       -0.1908
     24 C         139.7377  144.2810  163.3751 C.1     1  UNL1        0.1005
@<TRIPOS>BOND
     1    23    24    3
     2    24    17    1
     3    17    18   ar
     4    18    19   ar
     5    19    20   ar
     6    20    21   ar
     7    21    15    1
     8    15     1    1
     9     1     2    2
    10     1     3    1
    11     3     4   ar
    12     4     5   ar
    13     5     6   ar
    14     6     7   ar
    15     7     8   ar
    16     1     9    1
    17     9    10   ar
    18    10    11   ar
    19    11    12   ar
    20    12    13   ar
    21    13    14   ar
    22    21    22   ar
    23    22    17   ar
    24     8     3   ar
    25    14     9   ar
    26    15    16    1
@<TRIPOS>MOLECULE
*****
 24 26 0 0 0
SMALL
GASTEIGER

@<TRIPOS>ATOM
      1 P         141.1640  140.4084  167.0981 P.3     1  UNL1        0.2234
      2 O         139.9097  140.1118  167.8656 O.2     1  UNL1       -0.2905
      3 C         140.7264  139.4640  166.0180 C.ar    1  UNL1        0.0496
      4 C         139.3148  139.5049  165.5124 C.ar    1  UNL1        0.0046
      5 C         138.8772  138.5605  164.4324 C.ar    1  UNL1        0.0002
      6 C         139.8513  137.5751  163.8578 C.ar    1  UNL1        0.0000
      7 C         141.2630  137.5341  164.3634 C.ar    1  UNL1        0.0002
      8 C         141.7006  138.4786  165.4435 C.ar    1  UNL1        0.0046
      9 C         141.6015  141.3529  168.1781 C.ar    1  UNL1        0.0496
     10 C         140.6832  142.4477  168.6344 C.ar    1  UNL1        0.0046
     11 C         141.1207  143.3922  169.7144 C.ar    1  UNL1        0.0002
     12 C         142.4765  143.2418  170.3383 C.ar    1  UNL1        0.0000
     13 C         143.3948  142.1470  169.8821 C.ar    1  UNL1        0.0002
     14 C         142.9573  141.2025  168.8020 C.ar    1  UNL1        0.0046
     15 N         142.4182  140.7050  166.3306 N.pl3   1  UNL1       -0.2869
     16 H         143.1562  140.0535  166.3229 H       1  UNL1        0.1540
     17 C         141.4739  143.8932  164.1641 C.ar    1  UNL1        0.0697
     18 C         142.8074  144.5729  164.0639 C.ar    1  UNL1        0.0104
     19 C         144.0110  143.9632  164.7192 C.ar    1  UNL1        0.0020
     20 C         143.8813  142.6740  165.4748 C.ar    1  UNL1        0.0147
     21 C         142.5479  141.9943  165.5751 C.ar    1  UNL1        0.0504
     22 C         141.3441  142.6040  164.9197 C.ar    1  UNL1        0.0249
     23 N         139.0666  145.1125  162.8534 N.1     1  UNL1       -0.1908
     24 C         140.2702  144.5029  163.5088 C.1     1  UNL1        0.1005
@<TRIPOS>BOND
     1    23    24    3
     2    24    17    1
     3    17    18   ar
     4    18    19   ar
     5    19    20   ar
     6    20    21   ar
     7    21    15    1
     8    15     1    1
     9     1     2    2
    10     1     3    1
    11     3     4   ar
    12     4     5   ar
    13     5     6   ar
    14     6     7   ar
    15     7     8   ar
    16     1     9    1
    17     9    10   ar
    18    10    11   ar
    19    11    12   ar
    20    12    13   ar
    21    13    14   ar
    22    21    22   ar
    23    22    17   ar
    24     8     3   ar
    25    14     9   ar
    26    15    16    1
@<TRIPOS>MOLECULE
*****
 24 26 0 0 0
SMALL
GASTEIGER

@<TRIPOS>ATOM
      1 P         141.0966  142.0601  166.7604 P.3     1  UNL1        0.2234
      2 O         142.5042  142.5755  166.8182 O.2     1  UNL1       -0.2905
      3 C         141.4042  141.0960  167.8676 C.ar    1  UNL1        0.0496
      4 C         140.6268  141.1529  169.1492 C.ar    1  UNL1        0.0046
      5 C         140.9343  140.1887  170.2564 C.ar    1  UNL1        0.0002
      6 C         142.0193  139.1677  170.0820 C.ar    1  UNL1        0.0000
      7 C         142.7967  139.1108  168.8004 C.ar    1  UNL1        0.0002
      8 C         142.4891  140.0750  167.6932 C.ar    1  UNL1        0.0046
      9 C         140.7891  143.0242  165.6533 C.ar    1  UNL1        0.0496
     10 C         139.5036  143.7973  165.6674 C.ar    1  UNL1        0.0046
     11 C         139.1961  144.7614  164.5602 C.ar    1  UNL1        0.0002
     12 C         140.1739  144.9525  163.4389 C.ar    1  UNL1        0.0000
     13 C         141.4592  144.1795  163.4248 C.ar    1  UNL1        0.0002
     14 C         141.7669  143.2154  164.5320 C.ar    1  UNL1        0.0046
     15 N         139.6891  141.5448  166.7027 N.pl3   1  UNL1       -0.2869
     16 H         138.9476  142.0998  167.0363 H       1  UNL1        0.1540
     17 C         139.8422  138.3679  164.3291 C.ar    1  UNL1        0.0697
     18 C         138.8559  137.4616  165.0045 C.ar    1  UNL1        0.0104
     19 C         138.1475  137.9165  166.2459 C.ar    1  UNL1        0.0020
     20 C         138.4252  139.2775  166.8119 C.ar    1  UNL1        0.0147
     21 C         139.4114  140.1837  166.1366 C.ar    1  UNL1        0.0504
     22 C         140.1200  139.7289  164.8951 C.ar    1  UNL1        0.0249
     23 N         141.2592  137.4582  161.8463 N.1     1  UNL1       -0.1908
     24 C         140.5507  137.9130  163.0877 C.1     1  UNL1        0.1005
@<TRIPOS>BOND
     1    23    24    3
     2    24    17    1
     3    17    18   ar
     4    18    19   ar
     5    19    20   ar
     6    20    21   ar
     7    21    15    1
     8    15     1    1
     9     1     2    2
    10     1     3    1
    11     3     4   ar
    12     4     5   ar
    13     5     6   ar
    14     6     7   ar
    15     7     8   ar
    16     1     9    1
    17     9    10   ar
    18    10    11   ar
    19    11    12   ar
    20    12    13   ar
    21    13    14   ar
    22    21    22   ar
    23    22    17   ar
    24     8     3   ar
    25    14     9   ar
    26    15    16    1
@<TRIPOS>MOLECULE
*****
 24 26 0 0 0
SMALL
GASTEIGER

@<TRIPOS>ATOM
      1 P         143.0322  141.7295  166.5533 P.3     1  UNL1        0.2234
      2 O         143.6428  143.0243  167.0012 O.2     1  UNL1       -0.2905
      3 C         143.7380  141.8524  165.2355 C.ar    1  UNL1        0.0496
      4 C         144.4225  140.6593  164.6371 C.ar    1  UNL1        0.0046
      5 C         145.1283  140.7823  163.3193 C.ar    1  UNL1        0.0002
      6 C         145.1497  142.0983  162.5998 C.ar    1  UNL1        0.0000
      7 C         144.4653  143.2914  163.1982 C.ar    1  UNL1        0.0002
      8 C         143.7594  143.1685  164.5160 C.ar    1  UNL1        0.0046
      9 C         142.3263  141.6065  167.8711 C.ar    1  UNL1        0.0496
     10 C         141.2250  142.5618  168.2240 C.ar    1  UNL1        0.0046
     11 C         140.5191  142.4388  169.5418 C.ar    1  UNL1        0.0002
     12 C         140.9146  141.3606  170.5067 C.ar    1  UNL1        0.0000
     13 C         142.0159  140.4053  170.1538 C.ar    1  UNL1        0.0002
     14 C         142.7218  140.5283  168.8360 C.ar    1  UNL1        0.0046
     15 N         142.4215  140.4347  166.1054 N.pl3   1  UNL1       -0.2869
     16 H         142.9758  139.6232  166.0471 H       1  UNL1        0.1540
     17 C         138.5857  139.4177  166.1509 C.ar    1  UNL1        0.0697
     18 C         138.0559  140.2597  165.0281 C.ar    1  UNL1        0.0104
     19 C         138.9813  141.1600  164.2646 C.ar    1  UNL1        0.0020
     20 C         140.4365  141.2183  164.6237 C.ar    1  UNL1        0.0147
     21 C         140.9663  140.3764  165.7463 C.ar    1  UNL1        0.0504
     22 C         140.0409  139.4760  166.5099 C.ar    1  UNL1        0.0249
     23 N         136.7349  137.6171  167.6780 N.1     1  UNL1       -0.1908
     24 C         137.6603  138.5174  166.9144 C.1     1  UNL1        0.1005
@<TRIPOS>BOND
     1    23    24    3
     2    24    17    1
     3    17    18   ar
     4    18    19   ar
     5    19    20   ar
     6    20    21   ar
     7    21    15    1
     8    15     1    1
     9     1     2    2
    10     1     3    1
    11     3     4   ar
    12     4     5   ar
    13     5     6   ar
    14     6     7   ar
    15     7     8   ar
    16     1     9    1
    17     9    10   ar
    18    10    11   ar
    19    11    12   ar
    20    12    13   ar
    21    13    14   ar
    22    21    22   ar
    23    22    17   ar
    24     8     3   ar
    25    14     9   ar
    26    15    16    1
