@<TRIPOS>MOLECULE
*****
 31 34 0 0 0
SMALL
GASTEIGER

@<TRIPOS>ATOM
      1 C         141.0237  138.6046  162.7645 C.2     1  UNL1        0.0079
      2 C         139.9237  139.4891  163.2720 C.2     1  UNL1        0.0937
      3 C         139.7361  139.6809  164.7479 C.2     1  UNL1        0.3691
      4 N         140.6146  140.6381  165.4975 N.2     1  UNL1       -0.0400
      5 C         140.4269  140.8299  166.9733 C.2     1  UNL1        0.1818
      6 C         141.3055  141.7871  167.7229 C.3     1  UNL1        0.1042
      7 C         141.1178  141.9788  169.1987 C.2     1  UNL1        0.0575
      8 C         140.0516  141.2134  169.9249 C.2     1  UNL1        0.0004
      9 C         139.1731  140.2562  169.1753 C.2     1  UNL1        0.0100
     10 C         139.3607  140.0645  167.6995 C.2     1  UNL1        0.1209
     11 C         138.4822  139.1073  166.9498 C.2     1  UNL1        0.3788
     12 O         137.4160  138.3418  167.6760 O.2     1  UNL1       -0.2376
     13 N         138.6698  138.9155  165.4741 N.am    1  UNL1        0.0364
     14 C         141.9964  142.9360  169.9484 C.3     1  UNL1        0.4153
     15 F         142.8749  143.8932  170.6980 F       1  UNL1       -0.1662
     16 F         140.9221  143.9802  169.8740 F       1  UNL1       -0.1662
     17 F         143.0706  141.8918  170.0228 F       1  UNL1       -0.1662
     18 C         140.2665  138.5021  158.8702 C.ar    1  UNL1        0.1547
     19 C         140.0789  138.6939  160.3460 C.ar    1  UNL1        0.0384
     20 C         141.2113  138.4128  161.2888 C.ar    1  UNL1        0.0034
     21 C         142.5312  137.9400  160.7557 C.ar    1  UNL1        0.0017
     22 C         142.7188  137.7482  159.2798 C.ar    1  UNL1        0.0206
     23 C         141.5864  138.0293  158.3371 C.ar    1  UNL1        0.0994
     24 N         141.7740  137.8376  156.8613 N.ar    1  UNL1       -0.2839
     25 C         142.0472  138.9198  155.8592 C.ar    1  UNL1        0.1826
     26 N         142.1634  138.2810  154.5070 N.ar    1  UNL1       -0.2280
     27 C         141.9620  136.8038  154.6734 C.ar    1  UNL1        0.0786
     28 C         141.9954  135.7805  153.5773 C.3     1  UNL1        0.0538
     29 C         141.7213  136.5298  156.1284 C.ar    1  UNL1        0.0963
     30 C         138.7981  140.1980  157.5596 C.3     1  UNL1        0.2525
     31 O         139.1341  138.7832  157.9275 O.3     1  UNL1       -0.4700
@<TRIPOS>BOND
     1    30    31    1
     2    31    18    1
     3    18    19   ar
     4    19    20   ar
     5    20     1    1
     6     1     2    2
     7     2     3    1
     8     3     4    1
     9     4     5    2
    10     5     6    1
    11     6     7    1
    12     7    14    1
    13    14    15    1
    14    14    16    1
    15    14    17    1
    16     7     8    2
    17     8     9    1
    18     9    10    2
    19    10    11    1
    20    11    12    2
    21    11    13    1
    22    20    21   ar
    23    21    22   ar
    24    22    23   ar
    25    23    24    1
    26    24    25   ar
    27    25    26   ar
    28    26    27   ar
    29    27    28    1
    30    27    29   ar
    31    23    18   ar
    32    29    24   ar
    33    13     3    2
    34    10     5    1
@<TRIPOS>MOLECULE
*****
 31 34 0 0 0
SMALL
GASTEIGER

@<TRIPOS>ATOM
      1 C         141.7657  138.2300  162.0554 C.2     1  UNL1        0.0079
      2 C         141.5343  139.4829  162.8470 C.2     1  UNL1        0.0937
      3 C         141.8126  139.5010  164.3209 C.2     1  UNL1        0.3691
      4 N         141.0202  140.4002  165.2228 N.2     1  UNL1       -0.0400
      5 C         141.2985  140.4183  166.6967 C.2     1  UNL1        0.1818
      6 C         140.5061  141.3175  167.5986 C.3     1  UNL1        0.1042
      7 C         140.7845  141.3355  169.0724 C.2     1  UNL1        0.0575
      8 C         141.8552  140.4543  169.6443 C.2     1  UNL1        0.0004
      9 C         142.6475  139.5551  168.7424 C.2     1  UNL1        0.0100
     10 C         142.3692  139.5371  167.2686 C.2     1  UNL1        0.1209
     11 C         143.1616  138.6378  166.3666 C.2     1  UNL1        0.3788
     12 O         144.2323  137.7566  166.9385 O.2     1  UNL1       -0.2376
     13 N         142.8833  138.6198  164.8928 N.am    1  UNL1        0.0364
     14 C         139.9921  142.2348  169.9744 C.3     1  UNL1        0.4153
     15 F         139.1997  143.1341  170.8763 F       1  UNL1       -0.1662
     16 F         141.0385  143.2999  169.8317 F       1  UNL1       -0.1662
     17 F         138.9456  141.1697  170.1171 F       1  UNL1       -0.1662
     18 C         142.2696  137.7383  158.1497 C.ar    1  UNL1        0.1547
     19 C         142.5479  137.7563  159.6235 C.ar    1  UNL1        0.0384
     20 C         141.4874  138.2120  160.5815 C.ar    1  UNL1        0.0034
     21 C         140.1486  138.6496  160.0657 C.ar    1  UNL1        0.0017
     22 C         139.8703  138.6316  158.5918 C.ar    1  UNL1        0.0206
     23 C         140.9308  138.1759  157.6338 C.ar    1  UNL1        0.0994
     24 N         140.6525  138.1579  156.1600 N.ar    1  UNL1       -0.2839
     25 C         141.0853  139.1967  155.1682 C.ar    1  UNL1        0.1826
     26 N         140.5928  138.7787  153.8144 N.ar    1  UNL1       -0.2280
     27 C         139.8555  137.4815  153.9695 C.ar    1  UNL1        0.0786
     28 C         139.1971  136.7046  152.8684 C.3     1  UNL1        0.0538
     29 C         139.8924  137.0979  155.4191 C.ar    1  UNL1        0.0963
     30 C         143.3530  135.8589  156.7200 C.3     1  UNL1        0.2525
     31 O         143.3301  137.2826  157.1918 O.3     1  UNL1       -0.4700
@<TRIPOS>BOND
     1    30    31    1
     2    31    18    1
     3    18    19   ar
     4    19    20   ar
     5    20     1    1
     6     1     2    2
     7     2     3    1
     8     3     4    1
     9     4     5    2
    10     5     6    1
    11     6     7    1
    12     7    14    1
    13    14    15    1
    14    14    16    1
    15    14    17    1
    16     7     8    2
    17     8     9    1
    18     9    10    2
    19    10    11    1
    20    11    12    2
    21    11    13    1
    22    20    21   ar
    23    21    22   ar
    24    22    23   ar
    25    23    24    1
    26    24    25   ar
    27    25    26   ar
    28    26    27   ar
    29    27    28    1
    30    27    29   ar
    31    23    18   ar
    32    29    24   ar
    33    13     3    2
    34    10     5    1
@<TRIPOS>MOLECULE
*****
 31 34 0 0 0
SMALL
GASTEIGER

@<TRIPOS>ATOM
      1 C         144.0199  140.6498  162.5185 C.2     1  UNL1        0.0079
      2 C         142.7139  140.3030  163.1695 C.2     1  UNL1        0.0937
      3 C         142.6489  140.0879  164.6526 C.2     1  UNL1        0.3691
      4 N         141.8240  141.0034  165.5078 N.2     1  UNL1       -0.0400
      5 C         141.7590  140.7884  166.9909 C.2     1  UNL1        0.1818
      6 C         140.9341  141.7039  167.8461 C.3     1  UNL1        0.1042
      7 C         140.8692  141.4887  169.3291 C.2     1  UNL1        0.0575
      8 C         141.6291  140.3581  169.9570 C.2     1  UNL1        0.0004
      9 C         142.4539  139.4426  169.1018 C.2     1  UNL1        0.0100
     10 C         142.5189  139.6577  167.6188 C.2     1  UNL1        0.1209
     11 C         143.3438  138.7422  166.7635 C.2     1  UNL1        0.3788
     12 O         144.1037  137.6116  167.3914 O.2     1  UNL1       -0.2376
     13 N         143.4088  138.9573  165.2805 N.am    1  UNL1        0.0364
     14 C         140.0443  142.4043  170.1844 C.3     1  UNL1        0.4153
     15 F         139.2194  143.3197  171.0396 F       1  UNL1       -0.1662
     16 F         138.9173  141.4148  170.1566 F       1  UNL1       -0.1662
     17 F         141.1712  143.3938  170.2122 F       1  UNL1       -0.1662
     18 C         143.8711  139.9413  158.6164 C.ar    1  UNL1        0.1547
     19 C         143.8062  139.7262  160.0995 C.ar    1  UNL1        0.0384
     20 C         144.0849  140.8649  161.0354 C.ar    1  UNL1        0.0034
     21 C         144.4285  142.2186  160.4882 C.ar    1  UNL1        0.0017
     22 C         144.4935  142.4336  159.0051 C.ar    1  UNL1        0.0206
     23 C         144.2148  141.2950  158.0692 C.ar    1  UNL1        0.0994
     24 N         144.2797  141.5100  156.5862 N.ar    1  UNL1       -0.2839
     25 C         143.1580  141.9932  155.7154 C.ar    1  UNL1        0.1826
     26 N         143.6628  142.0615  154.3044 N.ar    1  UNL1       -0.2280
     27 C         145.0966  141.6205  154.3033 C.ar    1  UNL1        0.0786
     28 C         145.9919  141.5353  153.1029 C.3     1  UNL1        0.0538
     29 C         145.4778  141.2797  155.7134 C.ar    1  UNL1        0.0963
     30 C         142.5287  137.7996  158.0157 C.3     1  UNL1        0.2525
     31 O         143.5924  138.8027  157.6806 O.3     1  UNL1       -0.4700
@<TRIPOS>BOND
     1    30    31    1
     2    31    18    1
     3    18    19   ar
     4    19    20   ar
     5    20     1    1
     6     1     2    2
     7     2     3    1
     8     3     4    1
     9     4     5    2
    10     5     6    1
    11     6     7    1
    12     7    14    1
    13    14    15    1
    14    14    16    1
    15    14    17    1
    16     7     8    2
    17     8     9    1
    18     9    10    2
    19    10    11    1
    20    11    12    2
    21    11    13    1
    22    20    21   ar
    23    21    22   ar
    24    22    23   ar
    25    23    24    1
    26    24    25   ar
    27    25    26   ar
    28    26    27   ar
    29    27    28    1
    30    27    29   ar
    31    23    18   ar
    32    29    24   ar
    33    13     3    2
    34    10     5    1
@<TRIPOS>MOLECULE
*****
 31 34 0 0 0
SMALL
GASTEIGER

@<TRIPOS>ATOM
      1 C         140.7602  139.1530  161.4848 C.2     1  UNL1        0.0079
      2 C         139.7077  138.5606  162.3742 C.2     1  UNL1        0.0937
      3 C         139.6829  138.8992  163.8354 C.2     1  UNL1        0.3691
      4 N         140.8487  139.6055  164.4614 N.2     1  UNL1       -0.0400
      5 C         140.8239  139.9441  165.9226 C.2     1  UNL1        0.1818
      6 C         141.9897  140.6504  166.5486 C.3     1  UNL1        0.1042
      7 C         141.9648  140.9890  168.0097 C.2     1  UNL1        0.0575
      8 C         140.7742  140.6213  168.8446 C.2     1  UNL1        0.0004
      9 C         139.6084  139.9150  168.2186 C.2     1  UNL1        0.0100
     10 C         139.6332  139.5764  166.7575 C.2     1  UNL1        0.1209
     11 C         138.4674  138.8701  166.1314 C.2     1  UNL1        0.3788
     12 O         137.2767  138.5024  166.9663 O.2     1  UNL1       -0.2376
     13 N         138.4922  138.5315  164.6703 N.am    1  UNL1        0.0364
     14 C         143.1307  141.6953  168.6358 C.3     1  UNL1        0.4153
     15 F         144.2965  142.4016  169.2619 F       1  UNL1       -0.1662
     16 F         143.1662  142.6568  167.4851 F       1  UNL1       -0.1662
     17 F         143.0952  140.7338  169.7866 F       1  UNL1       -0.1662
     18 C         142.0127  137.8048  157.9686 C.ar    1  UNL1        0.1547
     19 C         141.9880  138.1435  159.4297 C.ar    1  UNL1        0.0384
     20 C         140.7850  138.8143  160.0238 C.ar    1  UNL1        0.0034
     21 C         139.6069  139.1465  159.1568 C.ar    1  UNL1        0.0017
     22 C         139.6317  138.8079  157.6957 C.ar    1  UNL1        0.0206
     23 C         140.8346  138.1370  157.1017 C.ar    1  UNL1        0.0994
     24 N         140.8593  137.7984  155.6406 N.ar    1  UNL1       -0.2839
     25 C         141.3975  138.6677  154.5430 C.ar    1  UNL1        0.1826
     26 N         141.2210  137.9375  153.2446 N.ar    1  UNL1       -0.2280
     27 C         140.5738  136.6169  153.5398 C.ar    1  UNL1        0.0786
     28 C         140.2134  135.5667  152.5313 C.3     1  UNL1        0.0538
     29 C         140.3502  136.5309  155.0205 C.ar    1  UNL1        0.0963
     30 C         143.2031  135.6548  157.1258 C.3     1  UNL1        0.2525
     31 O         143.2156  137.1340  157.3746 O.3     1  UNL1       -0.4700
@<TRIPOS>BOND
     1    30    31    1
     2    31    18    1
     3    18    19   ar
     4    19    20   ar
     5    20     1    1
     6     1     2    2
     7     2     3    1
     8     3     4    1
     9     4     5    2
    10     5     6    1
    11     6     7    1
    12     7    14    1
    13    14    15    1
    14    14    16    1
    15    14    17    1
    16     7     8    2
    17     8     9    1
    18     9    10    2
    19    10    11    1
    20    11    12    2
    21    11    13    1
    22    20    21   ar
    23    21    22   ar
    24    22    23   ar
    25    23    24    1
    26    24    25   ar
    27    25    26   ar
    28    26    27   ar
    29    27    28    1
    30    27    29   ar
    31    23    18   ar
    32    29    24   ar
    33    13     3    2
    34    10     5    1
@<TRIPOS>MOLECULE
*****
 31 34 0 0 0
SMALL
GASTEIGER

@<TRIPOS>ATOM
      1 C         141.6033  139.1093  159.2483 C.2     1  UNL1        0.0079
      2 C         142.0069  140.5283  158.9771 C.2     1  UNL1        0.0937
      3 C         142.0163  141.5316  160.0922 C.2     1  UNL1        0.3691
      4 N         140.7581  141.8126  160.8588 N.2     1  UNL1       -0.0400
      5 C         140.7675  142.8159  161.9740 C.2     1  UNL1        0.1818
      6 C         139.5092  143.0970  162.7406 C.3     1  UNL1        0.1042
      7 C         139.5187  144.1002  163.8557 C.2     1  UNL1        0.0575
      8 C         140.7865  144.8223  164.2041 C.2     1  UNL1        0.0004
      9 C         142.0447  144.5412  163.4375 C.2     1  UNL1        0.0100
     10 C         142.0352  143.5380  162.3224 C.2     1  UNL1        0.1209
     11 C         143.2935  143.2569  161.5557 C.2     1  UNL1        0.3788
     12 O         144.5612  143.9790  161.9042 O.2     1  UNL1       -0.2376
     13 N         143.2840  142.2537  160.4407 N.am    1  UNL1        0.0364
     14 C         138.2604  144.3813  164.6224 C.3     1  UNL1        0.4153
     15 F         137.0023  144.6625  165.3891 F       1  UNL1       -0.1662
     16 F         139.0515  144.4516  165.8948 F       1  UNL1       -0.1662
     17 F         137.4693  144.3110  163.3499 F       1  UNL1       -0.1662
     18 C         142.7175  136.1304  156.8745 C.ar    1  UNL1        0.1547
     19 C         142.7269  137.1335  157.9897 C.ar    1  UNL1        0.0384
     20 C         141.5939  138.1061  158.1331 C.ar    1  UNL1        0.0034
     21 C         140.4516  138.0755  157.1615 C.ar    1  UNL1        0.0017
     22 C         140.4422  137.0723  156.0463 C.ar    1  UNL1        0.0206
     23 C         141.5751  136.0997  155.9029 C.ar    1  UNL1        0.0994
     24 N         141.5657  135.0966  154.7878 N.ar    1  UNL1       -0.2839
     25 C         141.8450  135.3826  153.3420 C.ar    1  UNL1        0.1826
     26 N         141.7273  134.0940  152.5833 N.ar    1  UNL1       -0.2280
     27 C         141.3751  133.0114  153.5602 C.ar    1  UNL1        0.0786
     28 C         141.1605  131.5636  153.2322 C.3     1  UNL1        0.0538
     29 C         141.2753  133.6310  154.9226 C.ar    1  UNL1        0.0963
     30 C         143.8788  133.9112  157.5649 C.3     1  UNL1        0.2525
     31 O         143.8504  135.1578  156.7311 O.3     1  UNL1       -0.4700
@<TRIPOS>BOND
     1    30    31    1
     2    31    18    1
     3    18    19   ar
     4    19    20   ar
     5    20     1    1
     6     1     2    2
     7     2     3    1
     8     3     4    1
     9     4     5    2
    10     5     6    1
    11     6     7    1
    12     7    14    1
    13    14    15    1
    14    14    16    1
    15    14    17    1
    16     7     8    2
    17     8     9    1
    18     9    10    2
    19    10    11    1
    20    11    12    2
    21    11    13    1
    22    20    21   ar
    23    21    22   ar
    24    22    23   ar
    25    23    24    1
    26    24    25   ar
    27    25    26   ar
    28    26    27   ar
    29    27    28    1
    30    27    29   ar
    31    23    18   ar
    32    29    24   ar
    33    13     3    2
    34    10     5    1
@<TRIPOS>MOLECULE
*****
 31 34 0 0 0
SMALL
GASTEIGER

@<TRIPOS>ATOM
      1 C         140.9530  139.5741  159.7749 C.2     1  UNL1        0.0079
      2 C         141.2683  139.1162  161.1680 C.2     1  UNL1        0.0937
      3 C         141.1529  140.0742  162.3165 C.2     1  UNL1        0.3691
      4 N         140.7113  139.5815  163.6627 N.2     1  UNL1       -0.0400
      5 C         140.5959  140.5396  164.8112 C.2     1  UNL1        0.1818
      6 C         140.1543  140.0469  166.1573 C.3     1  UNL1        0.1042
      7 C         140.0389  141.0049  167.3057 C.2     1  UNL1        0.0575
      8 C         140.3652  142.4555  167.1080 C.2     1  UNL1        0.0004
      9 C         140.8068  142.9482  165.7618 C.2     1  UNL1        0.0100
     10 C         140.9221  141.9902  164.6134 C.2     1  UNL1        0.1209
     11 C         141.3638  142.4829  163.2672 C.2     1  UNL1        0.3788
     12 O         141.6901  143.9336  163.0694 O.2     1  UNL1       -0.2376
     13 N         141.4792  141.5249  162.1188 N.am    1  UNL1        0.0364
     14 C         139.5973  140.5122  168.6520 C.3     1  UNL1        0.4153
     15 F         139.1556  140.0195  169.9981 F       1  UNL1       -0.1662
     16 F         138.8007  139.4255  167.9929 F       1  UNL1       -0.1662
     17 F         140.3938  141.5989  169.3111 F       1  UNL1       -0.1662
     18 C         139.9622  137.2720  156.6977 C.ar    1  UNL1        0.1547
     19 C         139.8469  138.2300  157.8461 C.ar    1  UNL1        0.0384
     20 C         141.0684  138.6161  158.6264 C.ar    1  UNL1        0.0034
     21 C         142.4053  138.0441  158.2583 C.ar    1  UNL1        0.0017
     22 C         142.5207  137.0861  157.1098 C.ar    1  UNL1        0.0206
     23 C         141.2992  136.7001  156.3296 C.ar    1  UNL1        0.0994
     24 N         141.4145  135.7421  155.1811 N.ar    1  UNL1       -0.2839
     25 C         141.5456  136.1127  153.7335 C.ar    1  UNL1        0.1826
     26 N         141.6312  134.8448  152.9364 N.ar    1  UNL1       -0.2280
     27 C         141.5530  133.6907  153.8914 C.ar    1  UNL1        0.0786
     28 C         141.6005  132.2373  153.5236 C.3     1  UNL1        0.0538
     29 C         141.4192  134.2452  155.2786 C.ar    1  UNL1        0.0963
     30 C         138.2738  137.7463  154.7809 C.3     1  UNL1        0.2525
     31 O         138.7407  136.8860  155.9175 O.3     1  UNL1       -0.4700
@<TRIPOS>BOND
     1    30    31    1
     2    31    18    1
     3    18    19   ar
     4    19    20   ar
     5    20     1    1
     6     1     2    2
     7     2     3    1
     8     3     4    1
     9     4     5    2
    10     5     6    1
    11     6     7    1
    12     7    14    1
    13    14    15    1
    14    14    16    1
    15    14    17    1
    16     7     8    2
    17     8     9    1
    18     9    10    2
    19    10    11    1
    20    11    12    2
    21    11    13    1
    22    20    21   ar
    23    21    22   ar
    24    22    23   ar
    25    23    24    1
    26    24    25   ar
    27    25    26   ar
    28    26    27   ar
    29    27    28    1
    30    27    29   ar
    31    23    18   ar
    32    29    24   ar
    33    13     3    2
    34    10     5    1
@<TRIPOS>MOLECULE
*****
 31 34 0 0 0
SMALL
GASTEIGER

@<TRIPOS>ATOM
      1 C         142.7203  137.6429  160.9769 C.2     1  UNL1        0.0079
      2 C         142.3856  138.4504  159.7580 C.2     1  UNL1        0.0937
      3 C         142.3525  137.7943  158.4094 C.2     1  UNL1        0.3691
      4 N         142.8631  136.3937  158.2441 N.2     1  UNL1       -0.0400
      5 C         142.8300  135.7376  156.8955 C.2     1  UNL1        0.1818
      6 C         143.3406  134.3369  156.7302 C.3     1  UNL1        0.1042
      7 C         143.3075  133.6809  155.3817 C.2     1  UNL1        0.0575
      8 C         142.7637  134.4255  154.1986 C.2     1  UNL1        0.0004
      9 C         142.2531  135.8262  154.3639 C.2     1  UNL1        0.0100
     10 C         142.2862  136.4822  155.7124 C.2     1  UNL1        0.1209
     11 C         141.7756  137.8829  155.8778 C.2     1  UNL1        0.3788
     12 O         141.2318  138.6276  154.6946 O.2     1  UNL1       -0.2376
     13 N         141.8087  138.5390  157.2263 N.am    1  UNL1        0.0364
     14 C         143.8181  132.2802  155.2163 C.3     1  UNL1        0.4153
     15 F         144.3288  130.8795  155.0510 F       1  UNL1       -0.1662
     16 F         144.5635  132.3989  156.5125 F       1  UNL1       -0.1662
     17 F         143.0728  132.1614  153.9201 F       1  UNL1       -0.1662
     18 C         143.9843  139.7574  164.0884 C.ar    1  UNL1        0.1547
     19 C         143.9512  139.1013  162.7399 C.ar    1  UNL1        0.0384
     20 C         142.7534  138.2990  162.3254 C.ar    1  UNL1        0.0034
     21 C         141.5888  138.1529  163.2593 C.ar    1  UNL1        0.0017
     22 C         141.6219  138.8091  164.6079 C.ar    1  UNL1        0.0206
     23 C         142.8197  139.6113  165.0223 C.ar    1  UNL1        0.0994
     24 N         142.8528  140.2674  166.3708 N.ar    1  UNL1       -0.2839
     25 C         142.9789  141.7390  166.6324 C.ar    1  UNL1        0.1826
     26 N         142.9697  141.9482  168.1178 N.ar    1  UNL1       -0.2280
     27 C         142.8378  140.6059  168.7742 C.ar    1  UNL1        0.0786
     28 C         142.7871  140.3477  170.2508 C.3     1  UNL1        0.0538
     29 C         142.7656  139.5671  167.6945 C.ar    1  UNL1        0.0963
     30 C         145.6985  141.6508  163.6127 C.3     1  UNL1        0.2525
     31 O         145.1821  140.5596  164.5029 O.3     1  UNL1       -0.4700
@<TRIPOS>BOND
     1    30    31    1
     2    31    18    1
     3    18    19   ar
     4    19    20   ar
     5    20     1    1
     6     1     2    2
     7     2     3    1
     8     3     4    1
     9     4     5    2
    10     5     6    1
    11     6     7    1
    12     7    14    1
    13    14    15    1
    14    14    16    1
    15    14    17    1
    16     7     8    2
    17     8     9    1
    18     9    10    2
    19    10    11    1
    20    11    12    2
    21    11    13    1
    22    20    21   ar
    23    21    22   ar
    24    22    23   ar
    25    23    24    1
    26    24    25   ar
    27    25    26   ar
    28    26    27   ar
    29    27    28    1
    30    27    29   ar
    31    23    18   ar
    32    29    24   ar
    33    13     3    2
    34    10     5    1
@<TRIPOS>MOLECULE
*****
 31 34 0 0 0
SMALL
GASTEIGER

@<TRIPOS>ATOM
      1 C         140.4372  143.1630  162.4266 C.2     1  UNL1        0.0079
      2 C         139.3901  142.1622  162.8163 C.2     1  UNL1        0.0937
      3 C         139.3753  141.5943  164.2046 C.2     1  UNL1        0.3691
      4 N         140.2198  142.2147  165.2778 N.2     1  UNL1       -0.0400
      5 C         140.2049  141.6468  166.6661 C.2     1  UNL1        0.1818
      6 C         141.0495  142.2671  167.7393 C.3     1  UNL1        0.1042
      7 C         141.0346  141.6992  169.1275 C.2     1  UNL1        0.0575
      8 C         140.1751  140.5109  169.4426 C.2     1  UNL1        0.0004
      9 C         139.3305  139.8905  168.3694 C.2     1  UNL1        0.0100
     10 C         139.3455  140.4584  166.9811 C.2     1  UNL1        0.1209
     11 C         138.5009  139.8381  165.9079 C.2     1  UNL1        0.3788
     12 O         137.6414  138.6497  166.2229 O.2     1  UNL1       -0.2376
     13 N         138.5158  140.4060  164.5196 N.am    1  UNL1        0.0364
     14 C         141.8791  142.3196  170.2008 C.3     1  UNL1        0.4153
     15 F         142.7237  142.9400  171.2740 F       1  UNL1       -0.1662
     16 F         142.8522  142.7924  169.1618 F       1  UNL1       -0.1662
     17 F         140.9061  141.8469  171.2399 F       1  UNL1       -0.1662
     18 C         139.6368  143.6668  158.5723 C.ar    1  UNL1        0.1547
     19 C         139.6219  143.0989  159.9606 C.ar    1  UNL1        0.0384
     20 C         140.4521  143.7309  161.0383 C.ar    1  UNL1        0.0034
     21 C         141.2970  144.9307  160.7278 C.ar    1  UNL1        0.0017
     22 C         141.3119  145.4986  159.3395 C.ar    1  UNL1        0.0206
     23 C         140.4817  144.8666  158.2618 C.ar    1  UNL1        0.0994
     24 N         140.4966  145.4345  156.8735 N.ar    1  UNL1       -0.2839
     25 C         141.1781  144.8310  155.6813 C.ar    1  UNL1        0.1826
     26 N         140.9352  145.7291  154.5046 N.ar    1  UNL1       -0.2280
     27 C         140.1036  146.8877  154.9697 C.ar    1  UNL1        0.0786
     28 C         139.6268  148.0280  154.1199 C.3     1  UNL1        0.0538
     29 C         139.8325  146.7056  156.4337 C.ar    1  UNL1        0.0963
     30 C         137.8243  141.9552  157.8404 C.3     1  UNL1        0.2525
     31 O         138.8066  143.0348  157.4946 O.3     1  UNL1       -0.4700
@<TRIPOS>BOND
     1    30    31    1
     2    31    18    1
     3    18    19   ar
     4    19    20   ar
     5    20     1    1
     6     1     2    2
     7     2     3    1
     8     3     4    1
     9     4     5    2
    10     5     6    1
    11     6     7    1
    12     7    14    1
    13    14    15    1
    14    14    16    1
    15    14    17    1
    16     7     8    2
    17     8     9    1
    18     9    10    2
    19    10    11    1
    20    11    12    2
    21    11    13    1
    22    20    21   ar
    23    21    22   ar
    24    22    23   ar
    25    23    24    1
    26    24    25   ar
    27    25    26   ar
    28    26    27   ar
    29    27    28    1
    30    27    29   ar
    31    23    18   ar
    32    29    24   ar
    33    13     3    2
    34    10     5    1
@<TRIPOS>MOLECULE
*****
 31 34 0 0 0
SMALL
GASTEIGER

@<TRIPOS>ATOM
      1 C         142.3800  138.0067  161.5615 C.2     1  UNL1        0.0079
      2 C         142.6773  138.9276  160.4154 C.2     1  UNL1        0.0937
      3 C         142.5839  138.4245  159.0053 C.2     1  UNL1        0.3691
      4 N         142.9920  137.0177  158.6823 N.2     1  UNL1       -0.0400
      5 C         142.8986  136.5147  157.2722 C.2     1  UNL1        0.1818
      6 C         143.3067  135.1079  156.9492 C.3     1  UNL1        0.1042
      7 C         143.2133  134.6049  155.5392 C.2     1  UNL1        0.0575
      8 C         142.7118  135.5087  154.4522 C.2     1  UNL1        0.0004
      9 C         142.3037  136.9155  154.7752 C.2     1  UNL1        0.0100
     10 C         142.3971  137.4185  156.1852 C.2     1  UNL1        0.1209
     11 C         141.9890  138.8253  156.5083 C.2     1  UNL1        0.3788
     12 O         141.4874  139.7291  155.4213 O.2     1  UNL1       -0.2376
     13 N         142.0824  139.3283  157.9183 N.am    1  UNL1        0.0364
     14 C         143.6214  133.1981  155.2161 C.3     1  UNL1        0.4153
     15 F         144.0296  131.7913  154.8931 F       1  UNL1       -0.1662
     16 F         144.3965  133.1285  156.4984 F       1  UNL1       -0.1662
     17 F         142.8463  133.2677  153.9338 F       1  UNL1       -0.1662
     18 C         141.3347  139.0895  165.2336 C.ar    1  UNL1        0.1547
     19 C         141.2413  138.5864  163.8236 C.ar    1  UNL1        0.0384
     20 C         142.4734  138.5097  162.9715 C.ar    1  UNL1        0.0034
     21 C         143.7989  138.9361  163.5294 C.ar    1  UNL1        0.0017
     22 C         143.8923  139.4392  164.9395 C.ar    1  UNL1        0.0206
     23 C         142.6602  139.5159  165.7916 C.ar    1  UNL1        0.0994
     24 N         142.7536  140.0190  167.2016 N.ar    1  UNL1       -0.2839
     25 C         142.8007  139.1719  168.4386 C.ar    1  UNL1        0.1826
     26 N         142.8926  140.0869  169.6238 N.ar    1  UNL1       -0.2280
     27 C         142.9022  141.4995  169.1191 C.ar    1  UNL1        0.0786
     28 C         142.9835  142.7367  169.9632 C.3     1  UNL1        0.0538
     29 C         142.8164  141.4575  167.6222 C.ar    1  UNL1        0.0963
     30 C         138.9849  140.0918  165.7064 C.3     1  UNL1        0.2525
     31 O         140.1027  139.1662  166.0857 O.3     1  UNL1       -0.4700
@<TRIPOS>BOND
     1    30    31    1
     2    31    18    1
     3    18    19   ar
     4    19    20   ar
     5    20     1    1
     6     1     2    2
     7     2     3    1
     8     3     4    1
     9     4     5    2
    10     5     6    1
    11     6     7    1
    12     7    14    1
    13    14    15    1
    14    14    16    1
    15    14    17    1
    16     7     8    2
    17     8     9    1
    18     9    10    2
    19    10    11    1
    20    11    12    2
    21    11    13    1
    22    20    21   ar
    23    21    22   ar
    24    22    23   ar
    25    23    24    1
    26    24    25   ar
    27    25    26   ar
    28    26    27   ar
    29    27    28    1
    30    27    29   ar
    31    23    18   ar
    32    29    24   ar
    33    13     3    2
    34    10     5    1
