@<TRIPOS>MOLECULE
*****
 31 35 0 0 0
SMALL
GASTEIGER

@<TRIPOS>ATOM
      1 C         143.5811  139.6332  161.9525 C.3     1  UNL1        0.0181
      2 C         143.0301  138.4964  161.1436 C.3     1  UNL1        0.0036
      3 C         142.5372  137.5483  160.0909 C.3     1  UNL1        0.0227
      4 C         142.6994  138.2127  158.7560 C.3     1  UNL1        0.0870
      5 C         143.2926  139.5715  158.9835 C.3     1  UNL1        0.0227
      6 C         143.4970  139.7468  160.4591 C.3     1  UNL1        0.0036
      7 N         142.3328  137.6221  157.4267 N.ar    1  UNL1       -0.3109
      8 C         141.5280  138.2951  156.3547 C.ar    1  UNL1        0.1785
      9 N         141.4045  137.3437  155.2017 N.ar    1  UNL1       -0.2239
     10 C         142.1330  136.0827  155.5611 C.ar    1  UNL1        0.0988
     11 C         142.3480  134.8000  154.8138 C.ar    1  UNL1        0.0213
     12 C         143.1368  133.6894  155.4417 C.ar    1  UNL1        0.0119
     13 C         143.7105  133.8615  156.8169 C.ar    1  UNL1        0.0700
     14 C         143.4955  135.1441  157.5642 C.ar    1  UNL1        0.0290
     15 C         142.7067  136.2547  156.9363 C.ar    1  UNL1        0.0795
     16 C         144.4993  132.7508  157.4449 C.1     1  UNL1        0.1005
     17 N         145.2881  131.6401  158.0728 N.1     1  UNL1       -0.1908
     18 C         143.9476  140.2238  163.2816 C.3     1  UNL1        0.0718
     19 N         142.9011  140.3886  164.3435 N.am    1  UNL1       -0.3025
     20 C         142.9565  139.5520  165.5873 C.2     1  UNL1        0.2458
     21 O         144.0585  138.5508  165.7693 O.2     1  UNL1       -0.2701
     22 H         142.1778  141.0457  164.2241 H       1  UNL1        0.1497
     23 C         141.9099  139.7167  166.6492 C.ar    1  UNL1        0.0534
     24 C         140.4611  139.7948  166.2687 C.ar    1  UNL1        0.0054
     25 C         139.4146  139.9595  167.3305 C.ar    1  UNL1        0.0115
     26 C         139.8168  140.0462  168.7730 C.ar    1  UNL1        0.0577
     27 CL        138.7702  140.2109  169.8348 Cl      1  UNL1       -0.0822
     28 C         141.2656  139.9682  169.1536 C.ar    1  UNL1        0.0115
     29 C         142.3122  139.8035  168.0917 C.ar    1  UNL1        0.0054
     30 C         145.6475  142.0452  164.0186 C.3     1  UNL1        0.0017
     31 C         145.3609  140.6498  163.5490 C.3     1  UNL1        0.0196
@<TRIPOS>BOND
     1    30    31    1
     2    18    31    1
     3    18    19    1
     4    19    20   am
     5    20    21    2
     6    20    23    1
     7    23    24   ar
     8    24    25   ar
     9    25    26   ar
    10    26    27    1
    11    26    28   ar
    12    28    29   ar
    13     1    18    1
    14     1     2    1
    15     2     3    1
    16     3     4    1
    17     4     7    1
    18     7     8   ar
    19     8     9   ar
    20     9    10   ar
    21    10    11   ar
    22    11    12   ar
    23    12    13   ar
    24    13    16    1
    25    16    17    3
    26    13    14   ar
    27    14    15   ar
    28     4     5    1
    29     6     5    1
    30    29    23   ar
    31     6     1    1
    32     6     2    1
    33    15     7   ar
    34    15    10   ar
    35    19    22    1
@<TRIPOS>MOLECULE
*****
 31 35 0 0 0
SMALL
GASTEIGER

@<TRIPOS>ATOM
      1 C         142.4883  138.4049  158.1324 C.3     1  UNL1        0.0181
      2 C         142.6246  138.6527  159.6056 C.3     1  UNL1        0.0036
      3 C         142.8946  139.1693  160.9877 C.3     1  UNL1        0.0227
      4 C         143.5625  140.5063  160.8607 C.3     1  UNL1        0.0870
      5 C         143.7054  140.8161  159.4000 C.3     1  UNL1        0.0227
      6 C         143.1258  139.6706  158.6243 C.3     1  UNL1        0.0036
      7 N         144.0092  141.3801  161.9951 N.ar    1  UNL1       -0.3109
      8 C         145.1742  141.1192  162.9032 C.ar    1  UNL1        0.1785
      9 N         145.2543  142.2461  163.8899 N.ar    1  UNL1       -0.2239
     10 C         144.1387  143.2036  163.5916 C.ar    1  UNL1        0.0988
     11 C         143.7243  144.4936  164.2350 C.ar    1  UNL1        0.0213
     12 C         142.5403  145.2484  163.7074 C.ar    1  UNL1        0.0119
     13 C         141.7708  144.7131  162.5363 C.ar    1  UNL1        0.0700
     14 C         142.1853  143.4231  161.8929 C.ar    1  UNL1        0.0290
     15 C         143.3692  142.6684  162.4205 C.ar    1  UNL1        0.0795
     16 C         140.5868  145.4680  162.0087 C.1     1  UNL1        0.1005
     17 N         139.4028  146.2228  161.4810 N.1     1  UNL1       -0.1908
     18 C         142.0417  137.5311  156.9981 C.3     1  UNL1        0.0718
     19 N         142.3149  136.0567  157.0345 N.am    1  UNL1       -0.3025
     20 C         143.5474  135.5059  156.3804 C.2     1  UNL1        0.2458
     21 O         144.5066  136.4296  155.6900 O.2     1  UNL1       -0.2701
     22 H         141.6854  135.4504  157.4876 H       1  UNL1        0.1497
     23 C         143.8206  134.0314  156.4169 C.ar    1  UNL1        0.0534
     24 C         143.5054  133.1805  155.2226 C.ar    1  UNL1        0.0054
     25 C         143.7786  131.7060  155.2590 C.ar    1  UNL1        0.0115
     26 C         144.3670  131.0825  156.4898 C.ar    1  UNL1        0.0577
     27 CL        144.6402  129.6081  156.5262 Cl      1  UNL1       -0.0822
     28 C         144.6822  131.9334  157.6842 C.ar    1  UNL1        0.0115
     29 C         144.4090  133.4079  157.6478 C.ar    1  UNL1        0.0054
     30 C         140.5071  139.3783  156.0066 C.3     1  UNL1        0.0017
     31 C         141.3218  138.1318  155.8271 C.3     1  UNL1        0.0196
@<TRIPOS>BOND
     1    30    31    1
     2    18    31    1
     3    18    19    1
     4    19    20   am
     5    20    21    2
     6    20    23    1
     7    23    24   ar
     8    24    25   ar
     9    25    26   ar
    10    26    27    1
    11    26    28   ar
    12    28    29   ar
    13     1    18    1
    14     1     2    1
    15     2     3    1
    16     3     4    1
    17     4     7    1
    18     7     8   ar
    19     8     9   ar
    20     9    10   ar
    21    10    11   ar
    22    11    12   ar
    23    12    13   ar
    24    13    16    1
    25    16    17    3
    26    13    14   ar
    27    14    15   ar
    28     4     5    1
    29     6     5    1
    30    29    23   ar
    31     6     1    1
    32     6     2    1
    33    15     7   ar
    34    15    10   ar
    35    19    22    1
@<TRIPOS>MOLECULE
*****
 31 35 0 0 0
SMALL
GASTEIGER

@<TRIPOS>ATOM
      1 C         140.3573  145.0998  158.2349 C.3     1  UNL1        0.0181
      2 C         140.0150  144.1471  159.3419 C.3     1  UNL1        0.0036
      3 C         139.7353  143.4394  160.6346 C.3     1  UNL1        0.0227
      4 C         139.9627  144.4115  161.7540 C.3     1  UNL1        0.0870
      5 C         140.3831  145.7201  161.1533 C.3     1  UNL1        0.0227
      6 C         140.4154  145.5567  159.6626 C.3     1  UNL1        0.0036
      7 N         139.7986  144.1254  163.2173 N.ar    1  UNL1       -0.3109
      8 C         138.6621  144.5823  164.0830 C.ar    1  UNL1        0.1785
      9 N         138.9034  144.0713  165.4725 N.ar    1  UNL1       -0.2239
     10 C         140.1890  143.2986  165.4655 C.ar    1  UNL1        0.0988
     11 C         140.9274  142.5690  166.5483 C.ar    1  UNL1        0.0213
     12 C         142.2190  141.8727  166.2372 C.ar    1  UNL1        0.0119
     13 C         142.7723  141.9061  164.8434 C.ar    1  UNL1        0.0700
     14 C         142.0340  142.6358  163.7606 C.ar    1  UNL1        0.0290
     15 C         140.7424  143.3320  164.0717 C.ar    1  UNL1        0.0795
     16 C         144.0641  141.2098  164.5323 C.1     1  UNL1        0.1005
     17 N         145.3557  140.5135  164.2214 N.1     1  UNL1       -0.1908
     18 C         140.5214  145.3860  156.7718 C.3     1  UNL1        0.0718
     19 N         140.4641  146.7995  156.2729 N.am    1  UNL1       -0.3025
     20 C         139.2700  147.2738  155.4989 C.2     1  UNL1        0.2458
     21 O         138.1332  146.3347  155.2237 O.2     1  UNL1       -0.2701
     22 H         141.2102  147.4158  156.4535 H       1  UNL1        0.1497
     23 C         139.2127  148.6874  155.0000 C.ar    1  UNL1        0.0534
     24 C         139.7868  149.0329  153.6581 C.ar    1  UNL1        0.0054
     25 C         139.7295  150.4464  153.1592 C.ar    1  UNL1        0.0115
     26 C         139.0982  151.5143  154.0025 C.ar    1  UNL1        0.0577
     27 CL        139.0409  152.9277  153.5036 Cl      1  UNL1       -0.0822
     28 C         138.5241  151.1687  155.3445 C.ar    1  UNL1        0.0115
     29 C         138.5814  149.7553  155.8433 C.ar    1  UNL1        0.0054
     30 C         139.7043  143.1873  155.6547 C.3     1  UNL1        0.0017
     31 C         140.7428  144.2587  155.8072 C.3     1  UNL1        0.0196
@<TRIPOS>BOND
     1    30    31    1
     2    18    31    1
     3    18    19    1
     4    19    20   am
     5    20    21    2
     6    20    23    1
     7    23    24   ar
     8    24    25   ar
     9    25    26   ar
    10    26    27    1
    11    26    28   ar
    12    28    29   ar
    13     1    18    1
    14     1     2    1
    15     2     3    1
    16     3     4    1
    17     4     7    1
    18     7     8   ar
    19     8     9   ar
    20     9    10   ar
    21    10    11   ar
    22    11    12   ar
    23    12    13   ar
    24    13    16    1
    25    16    17    3
    26    13    14   ar
    27    14    15   ar
    28     4     5    1
    29     6     5    1
    30    29    23   ar
    31     6     1    1
    32     6     2    1
    33    15     7   ar
    34    15    10   ar
    35    19    22    1
@<TRIPOS>MOLECULE
*****
 31 35 0 0 0
SMALL
GASTEIGER

@<TRIPOS>ATOM
      1 C         142.5852  142.6329  161.9051 C.3     1  UNL1        0.0181
      2 C         143.2552  142.4164  163.2296 C.3     1  UNL1        0.0036
      3 C         143.6970  141.9892  164.5979 C.3     1  UNL1        0.0227
      4 C         142.7459  140.9365  165.0846 C.3     1  UNL1        0.0870
      5 C         141.7161  140.7129  164.0170 C.3     1  UNL1        0.0227
      6 C         142.0309  141.6276  162.8706 C.3     1  UNL1        0.0036
      7 N         142.8126  140.2310  166.4067 N.ar    1  UNL1       -0.3109
      8 C         143.3782  138.8629  166.6484 C.ar    1  UNL1        0.1785
      9 N         143.2406  138.5562  168.1103 N.ar    1  UNL1       -0.2239
     10 C         142.5901  139.7348  168.7720 C.ar    1  UNL1        0.0988
     11 C         142.2044  139.9991  170.1972 C.ar    1  UNL1        0.0213
     12 C         141.5542  141.2986  170.5695 C.ar    1  UNL1        0.0119
     13 C         141.2897  142.3337  169.5166 C.ar    1  UNL1        0.0700
     14 C         141.6754  142.0693  168.0914 C.ar    1  UNL1        0.0290
     15 C         142.3256  140.7699  167.7191 C.ar    1  UNL1        0.0795
     16 C         140.6395  143.6332  169.8890 C.1     1  UNL1        0.1005
     17 N         139.9893  144.9326  170.2613 N.1     1  UNL1       -0.1908
     18 C         142.5184  143.3383  160.5831 C.3     1  UNL1        0.0718
     19 N         143.6875  143.2854  159.6448 N.am    1  UNL1       -0.3025
     20 C         143.8566  142.1146  158.7225 C.2     1  UNL1        0.2458
     21 O         142.8566  140.9967  158.7384 O.2     1  UNL1       -0.2701
     22 H         144.3439  144.0191  159.6343 H       1  UNL1        0.1497
     23 C         145.0258  142.0617  157.7842 C.ar    1  UNL1        0.0534
     24 C         144.9740  141.1822  156.5702 C.ar    1  UNL1        0.0054
     25 C         146.1431  141.1293  155.6320 C.ar    1  UNL1        0.0115
     26 C         147.3640  141.9559  155.9077 C.ar    1  UNL1        0.0577
     27 CL        148.5331  141.9030  154.9695 Cl      1  UNL1       -0.0822
     28 C         147.4159  142.8354  157.1217 C.ar    1  UNL1        0.0115
     29 C         146.2467  142.8883  158.0600 C.ar    1  UNL1        0.0054
     30 C         140.2091  143.4243  159.3957 C.3     1  UNL1        0.0017
     31 C         141.2824  144.0967  160.1991 C.3     1  UNL1        0.0196
@<TRIPOS>BOND
     1    30    31    1
     2    18    31    1
     3    18    19    1
     4    19    20   am
     5    20    21    2
     6    20    23    1
     7    23    24   ar
     8    24    25   ar
     9    25    26   ar
    10    26    27    1
    11    26    28   ar
    12    28    29   ar
    13     1    18    1
    14     1     2    1
    15     2     3    1
    16     3     4    1
    17     4     7    1
    18     7     8   ar
    19     8     9   ar
    20     9    10   ar
    21    10    11   ar
    22    11    12   ar
    23    12    13   ar
    24    13    16    1
    25    16    17    3
    26    13    14   ar
    27    14    15   ar
    28     4     5    1
    29     6     5    1
    30    29    23   ar
    31     6     1    1
    32     6     2    1
    33    15     7   ar
    34    15    10   ar
    35    19    22    1
@<TRIPOS>MOLECULE
*****
 31 35 0 0 0
SMALL
GASTEIGER

@<TRIPOS>ATOM
      1 C         141.1267  143.6166  162.2930 C.3     1  UNL1        0.0181
      2 C         141.0751  142.3148  163.0365 C.3     1  UNL1        0.0036
      3 C         140.9270  141.1913  164.0193 C.3     1  UNL1        0.0227
      4 C         140.4543  141.7716  165.3191 C.3     1  UNL1        0.0870
      5 C         140.3102  143.2539  165.1398 C.3     1  UNL1        0.0227
      6 C         140.6939  143.5896  163.7290 C.3     1  UNL1        0.0036
      7 N         140.1746  141.0045  166.5774 N.ar    1  UNL1       -0.3109
      8 C         139.0448  140.0411  166.7900 C.ar    1  UNL1        0.1785
      9 N         139.1477  139.5073  168.1880 N.ar    1  UNL1       -0.2239
     10 C         140.3411  140.1408  168.8394 C.ar    1  UNL1        0.0988
     11 C         140.9319  139.9947  170.2104 C.ar    1  UNL1        0.0213
     12 C         142.1574  140.7739  170.5859 C.ar    1  UNL1        0.0119
     13 C         142.7921  141.6992  169.5905 C.ar    1  UNL1        0.0700
     14 C         142.2013  141.8454  168.2195 C.ar    1  UNL1        0.0290
     15 C         140.9758  141.0662  167.8440 C.ar    1  UNL1        0.0795
     16 C         144.0176  142.4784  169.9661 C.1     1  UNL1        0.1005
     17 N         145.2431  143.2575  170.3417 N.1     1  UNL1       -0.1908
     18 C         141.4062  144.3837  161.0348 C.3     1  UNL1        0.0718
     19 N         142.5798  144.0148  160.1765 N.am    1  UNL1       -0.3025
     20 C         142.3778  143.1730  158.9515 C.2     1  UNL1        0.2458
     21 O         141.0023  142.7002  158.5848 O.2     1  UNL1       -0.2701
     22 H         143.4825  144.3251  160.4172 H       1  UNL1        0.1497
     23 C         143.5514  142.8040  158.0932 C.ar    1  UNL1        0.0534
     24 C         143.3349  142.3628  156.6761 C.ar    1  UNL1        0.0054
     25 C         144.5084  141.9938  155.8178 C.ar    1  UNL1        0.0115
     26 C         145.8985  142.0661  156.3767 C.ar    1  UNL1        0.0577
     27 CL        147.0720  141.6971  155.5184 Cl      1  UNL1       -0.0822
     28 C         146.1151  142.5074  157.7939 C.ar    1  UNL1        0.0115
     29 C         144.9416  142.8763  158.6521 C.ar    1  UNL1        0.0054
     30 C         139.6787  146.2181  161.6679 C.3     1  UNL1        0.0017
     31 C         140.5123  145.5199  160.6347 C.3     1  UNL1        0.0196
@<TRIPOS>BOND
     1    30    31    1
     2    18    31    1
     3    18    19    1
     4    19    20   am
     5    20    21    2
     6    20    23    1
     7    23    24   ar
     8    24    25   ar
     9    25    26   ar
    10    26    27    1
    11    26    28   ar
    12    28    29   ar
    13     1    18    1
    14     1     2    1
    15     2     3    1
    16     3     4    1
    17     4     7    1
    18     7     8   ar
    19     8     9   ar
    20     9    10   ar
    21    10    11   ar
    22    11    12   ar
    23    12    13   ar
    24    13    16    1
    25    16    17    3
    26    13    14   ar
    27    14    15   ar
    28     4     5    1
    29     6     5    1
    30    29    23   ar
    31     6     1    1
    32     6     2    1
    33    15     7   ar
    34    15    10   ar
    35    19    22    1
@<TRIPOS>MOLECULE
*****
 31 35 0 0 0
SMALL
GASTEIGER

@<TRIPOS>ATOM
      1 C         141.9756  138.3693  158.4408 C.3     1  UNL1        0.0181
      2 C         140.6942  138.8682  159.0402 C.3     1  UNL1        0.0036
      3 C         139.5785  139.3739  159.9059 C.3     1  UNL1        0.0227
      4 C         140.1025  139.5110  161.3046 C.3     1  UNL1        0.0870
      5 C         141.5422  139.0900  161.3034 C.3     1  UNL1        0.0227
      6 C         141.9079  138.6928  159.9040 C.3     1  UNL1        0.0036
      7 N         139.3237  139.9857  162.4954 N.ar    1  UNL1       -0.3109
      8 C         138.7239  139.1161  163.5603 C.ar    1  UNL1        0.1785
      9 N         138.0375  140.0064  164.5534 N.ar    1  UNL1       -0.2239
     10 C         138.2131  141.4261  164.1023 C.ar    1  UNL1        0.0988
     11 C         137.7518  142.7289  164.6854 C.ar    1  UNL1        0.0213
     12 C         138.0855  144.0188  163.9966 C.ar    1  UNL1        0.0119
     13 C         138.8805  144.0061  162.7246 C.ar    1  UNL1        0.0700
     14 C         139.3417  142.7033  162.1415 C.ar    1  UNL1        0.0290
     15 C         139.0080  141.4134  162.8304 C.ar    1  UNL1        0.0795
     16 C         139.2142  145.2961  162.0357 C.1     1  UNL1        0.1005
     17 N         139.5478  146.5861  161.3469 N.1     1  UNL1       -0.1908
     18 C         142.7544  137.8947  157.2500 C.3     1  UNL1        0.0718
     19 N         143.2988  136.4973  157.2184 N.am    1  UNL1       -0.3025
     20 C         142.5626  135.4222  156.4753 C.2     1  UNL1        0.2458
     21 O         141.2819  135.7444  155.7640 O.2     1  UNL1       -0.2701
     22 H         144.1394  136.2858  157.6853 H       1  UNL1        0.1497
     23 C         143.1071  134.0248  156.4437 C.ar    1  UNL1        0.0534
     24 C         143.9990  133.5422  157.5489 C.ar    1  UNL1        0.0054
     25 C         144.5434  132.1449  157.5172 C.ar    1  UNL1        0.0115
     26 C         144.1959  131.2301  156.3804 C.ar    1  UNL1        0.0577
     27 CL        144.7404  129.8328  156.3488 Cl      1  UNL1       -0.0822
     28 C         143.3040  131.7127  155.2751 C.ar    1  UNL1        0.0115
     29 C         142.7595  133.1100  155.3068 C.ar    1  UNL1        0.0054
     30 C         144.1697  138.6054  155.1905 C.3     1  UNL1        0.0017
     31 C         142.9889  138.8173  156.0907 C.3     1  UNL1        0.0196
@<TRIPOS>BOND
     1    30    31    1
     2    18    31    1
     3    18    19    1
     4    19    20   am
     5    20    21    2
     6    20    23    1
     7    23    24   ar
     8    24    25   ar
     9    25    26   ar
    10    26    27    1
    11    26    28   ar
    12    28    29   ar
    13     1    18    1
    14     1     2    1
    15     2     3    1
    16     3     4    1
    17     4     7    1
    18     7     8   ar
    19     8     9   ar
    20     9    10   ar
    21    10    11   ar
    22    11    12   ar
    23    12    13   ar
    24    13    16    1
    25    16    17    3
    26    13    14   ar
    27    14    15   ar
    28     4     5    1
    29     6     5    1
    30    29    23   ar
    31     6     1    1
    32     6     2    1
    33    15     7   ar
    34    15    10   ar
    35    19    22    1
@<TRIPOS>MOLECULE
*****
 31 35 0 0 0
SMALL
GASTEIGER

@<TRIPOS>ATOM
      1 C         143.8027  140.3602  161.8580 C.3     1  UNL1        0.0181
      2 C         143.7951  141.3713  160.7500 C.3     1  UNL1        0.0036
      3 C         143.7576  142.1308  159.4571 C.3     1  UNL1        0.0227
      4 C         143.6132  141.1393  158.3409 C.3     1  UNL1        0.0870
      5 C         143.5614  139.7668  158.9440 C.3     1  UNL1        0.0227
      6 C         143.6738  139.9102  160.4329 C.3     1  UNL1        0.0036
      7 N         143.5344  141.4632  156.8784 N.ar    1  UNL1       -0.3109
      8 C         142.2763  141.6536  156.0841 C.ar    1  UNL1        0.1785
      9 N         142.6643  141.9616  154.6682 N.ar    1  UNL1       -0.2239
     10 C         144.1621  141.9616  154.5876 C.ar    1  UNL1        0.0988
     11 C         145.1058  142.2023  153.4467 C.ar    1  UNL1        0.0213
     12 C         146.5873  142.1350  153.6719 C.ar    1  UNL1        0.0119
     13 C         147.1250  141.8269  155.0379 C.ar    1  UNL1        0.0700
     14 C         146.1813  141.5862  156.1787 C.ar    1  UNL1        0.0290
     15 C         144.6999  141.6536  155.9535 C.ar    1  UNL1        0.0795
     16 C         148.6066  141.7595  155.2630 C.1     1  UNL1        0.1005
     17 N         150.0880  141.6922  155.4882 N.1     1  UNL1       -0.1908
     18 C         143.8815  140.0362  163.3204 C.3     1  UNL1        0.0718
     19 N         142.7131  139.3976  164.0112 N.am    1  UNL1       -0.3025
     20 C         141.6422  140.2536  164.6199 C.2     1  UNL1        0.2458
     21 O         141.7397  141.7481  164.5379 O.2     1  UNL1       -0.2701
     22 H         142.6492  138.4167  164.0650 H       1  UNL1        0.1497
     23 C         140.4738  139.6149  165.3107 C.ar    1  UNL1        0.0534
     24 C         139.8155  138.4083  164.7103 C.ar    1  UNL1        0.0054
     25 C         138.6472  137.7697  165.4010 C.ar    1  UNL1        0.0115
     26 C         138.1372  138.3377  166.6922 C.ar    1  UNL1        0.0577
     27 CL        136.9689  137.6990  167.3830 Cl      1  UNL1       -0.0822
     28 C         138.7956  139.5443  167.2927 C.ar    1  UNL1        0.0115
     29 C         139.9639  140.1830  166.6020 C.ar    1  UNL1        0.0054
     30 C         145.8806  141.6193  163.8177 C.3     1  UNL1        0.0017
     31 C         145.1286  140.3509  164.0923 C.3     1  UNL1        0.0196
@<TRIPOS>BOND
     1    30    31    1
     2    18    31    1
     3    18    19    1
     4    19    20   am
     5    20    21    2
     6    20    23    1
     7    23    24   ar
     8    24    25   ar
     9    25    26   ar
    10    26    27    1
    11    26    28   ar
    12    28    29   ar
    13     1    18    1
    14     1     2    1
    15     2     3    1
    16     3     4    1
    17     4     7    1
    18     7     8   ar
    19     8     9   ar
    20     9    10   ar
    21    10    11   ar
    22    11    12   ar
    23    12    13   ar
    24    13    16    1
    25    16    17    3
    26    13    14   ar
    27    14    15   ar
    28     4     5    1
    29     6     5    1
    30    29    23   ar
    31     6     1    1
    32     6     2    1
    33    15     7   ar
    34    15    10   ar
    35    19    22    1
@<TRIPOS>MOLECULE
*****
 31 35 0 0 0
SMALL
GASTEIGER

@<TRIPOS>ATOM
      1 C         137.8154  140.4988  158.0259 C.3     1  UNL1        0.0181
      2 C         137.7263  140.2881  159.5084 C.3     1  UNL1        0.0036
      3 C         137.9098  139.9268  160.9527 C.3     1  UNL1        0.0227
      4 C         139.1945  139.1631  161.0800 C.3     1  UNL1        0.0870
      5 C         139.8051  139.0523  159.7144 C.3     1  UNL1        0.0227
      6 C         138.8977  139.7475  158.7431 C.3     1  UNL1        0.0036
      7 N         139.7679  138.6077  162.3499 N.ar    1  UNL1       -0.3109
      8 C         139.1035  137.6151  163.2572 C.ar    1  UNL1        0.1785
      9 N         140.0315  137.3414  164.4035 N.ar    1  UNL1       -0.2239
     10 C         141.2695  138.1647  164.2045 C.ar    1  UNL1        0.0988
     11 C         142.5240  138.3029  165.0151 C.ar    1  UNL1        0.0213
     12 C         143.6156  139.2238  164.5565 C.ar    1  UNL1        0.0119
     13 C         143.4527  140.0064  163.2872 C.ar    1  UNL1        0.0700
     14 C         142.1982  139.8682  162.4767 C.ar    1  UNL1        0.0290
     15 C         141.1066  138.9474  162.9353 C.ar    1  UNL1        0.0795
     16 C         144.5444  140.9273  162.8286 C.1     1  UNL1        0.1005
     17 N         145.6360  141.8481  162.3700 N.1     1  UNL1       -0.1908
     18 C         137.2420  141.0541  156.7561 C.3     1  UNL1        0.0718
     19 N         135.7680  141.3103  156.6478 N.am    1  UNL1       -0.3025
     20 C         134.8738  140.2878  156.0113 C.2     1  UNL1        0.2458
     21 O         135.4536  139.0093  155.4831 O.2     1  UNL1       -0.2701
     22 H         135.3874  142.1495  156.9945 H       1  UNL1        0.1497
     23 C         133.3997  140.5440  155.9030 C.ar    1  UNL1        0.0534
     24 C         132.8798  141.5126  154.8826 C.ar    1  UNL1        0.0054
     25 C         131.4058  141.7688  154.7743 C.ar    1  UNL1        0.0115
     26 C         130.4518  141.0563  155.6865 C.ar    1  UNL1        0.0577
     27 CL        128.9778  141.3125  155.5782 Cl      1  UNL1       -0.0822
     28 C         130.9717  140.0876  156.7070 C.ar    1  UNL1        0.0115
     29 C         132.4457  139.8315  156.8153 C.ar    1  UNL1        0.0054
     30 C         138.9650  142.6077  155.5866 C.3     1  UNL1        0.0017
     31 C         138.1425  141.3534  155.5943 C.3     1  UNL1        0.0196
@<TRIPOS>BOND
     1    30    31    1
     2    18    31    1
     3    18    19    1
     4    19    20   am
     5    20    21    2
     6    20    23    1
     7    23    24   ar
     8    24    25   ar
     9    25    26   ar
    10    26    27    1
    11    26    28   ar
    12    28    29   ar
    13     1    18    1
    14     1     2    1
    15     2     3    1
    16     3     4    1
    17     4     7    1
    18     7     8   ar
    19     8     9   ar
    20     9    10   ar
    21    10    11   ar
    22    11    12   ar
    23    12    13   ar
    24    13    16    1
    25    16    17    3
    26    13    14   ar
    27    14    15   ar
    28     4     5    1
    29     6     5    1
    30    29    23   ar
    31     6     1    1
    32     6     2    1
    33    15     7   ar
    34    15    10   ar
    35    19    22    1
@<TRIPOS>MOLECULE
*****
 31 35 0 0 0
SMALL
GASTEIGER

@<TRIPOS>ATOM
      1 C         142.5134  138.0640  158.8232 C.3     1  UNL1        0.0181
      2 C         142.9071  138.6753  160.1353 C.3     1  UNL1        0.0036
      3 C         142.9911  139.3138  161.4900 C.3     1  UNL1        0.0227
      4 C         141.5932  139.5720  161.9684 C.3     1  UNL1        0.0870
      5 C         140.6450  139.0931  160.9094 C.3     1  UNL1        0.0227
      6 C         141.4570  138.5389  159.7765 C.3     1  UNL1        0.0036
      7 N         141.2105  140.1991  163.2762 N.ar    1  UNL1       -0.3109
      8 C         140.2107  141.3010  163.4666 C.ar    1  UNL1        0.1785
      9 N         140.1428  141.6172  164.9313 N.ar    1  UNL1       -0.2239
     10 C         141.1005  140.7107  165.6462 C.ar    1  UNL1        0.0988
     11 C         141.4570  140.5701  167.0964 C.ar    1  UNL1        0.0213
     12 C         142.4734  139.5531  167.5237 C.ar    1  UNL1        0.0119
     13 C         143.1333  138.6767  166.5007 C.ar    1  UNL1        0.0700
     14 C         142.7768  138.8172  165.0506 C.ar    1  UNL1        0.0290
     15 C         141.7604  139.8343  164.6233 C.ar    1  UNL1        0.0795
     16 C         144.1497  137.6596  166.9281 C.1     1  UNL1        0.1005
     17 N         145.1661  136.6426  167.3555 N.1     1  UNL1       -0.1908
     18 C         142.8960  137.4370  157.5155 C.3     1  UNL1        0.0718
     19 N         143.3399  136.0049  157.4718 N.am    1  UNL1       -0.3025
     20 C         142.5662  135.0041  156.6656 C.2     1  UNL1        0.2458
     21 O         141.3485  135.4355  155.9032 O.2     1  UNL1       -0.2701
     22 H         144.1391  135.7217  157.9722 H       1  UNL1        0.1497
     23 C         143.0101  133.5719  156.6219 C.ar    1  UNL1        0.0534
     24 C         142.2163  132.5640  155.8449 C.ar    1  UNL1        0.0054
     25 C         142.6601  131.1319  155.8012 C.ar    1  UNL1        0.0115
     26 C         143.8979  130.7077  156.5346 C.ar    1  UNL1        0.0577
     27 CL        144.3418  129.2755  156.4909 Cl      1  UNL1       -0.0822
     28 C         144.6918  131.7156  157.3117 C.ar    1  UNL1        0.0115
     29 C         144.2480  133.1477  157.3554 C.ar    1  UNL1        0.0054
     30 C         143.5631  139.5501  156.1590 C.3     1  UNL1        0.0017
     31 C         142.8348  138.2421  156.2513 C.3     1  UNL1        0.0196
@<TRIPOS>BOND
     1    30    31    1
     2    18    31    1
     3    18    19    1
     4    19    20   am
     5    20    21    2
     6    20    23    1
     7    23    24   ar
     8    24    25   ar
     9    25    26   ar
    10    26    27    1
    11    26    28   ar
    12    28    29   ar
    13     1    18    1
    14     1     2    1
    15     2     3    1
    16     3     4    1
    17     4     7    1
    18     7     8   ar
    19     8     9   ar
    20     9    10   ar
    21    10    11   ar
    22    11    12   ar
    23    12    13   ar
    24    13    16    1
    25    16    17    3
    26    13    14   ar
    27    14    15   ar
    28     4     5    1
    29     6     5    1
    30    29    23   ar
    31     6     1    1
    32     6     2    1
    33    15     7   ar
    34    15    10   ar
    35    19    22    1
