@<TRIPOS>MOLECULE
*****
 35 38 0 0 0
SMALL
GASTEIGER

@<TRIPOS>ATOM
      1 C         141.9668  138.9206  161.5507 C.ar    1  UNL1        0.2204
      2 N         143.0194  138.1455  160.8151 N.ar    1  UNL1       -0.2089
      3 C         142.8117  137.7781  159.3757 C.ar    1  UNL1        0.1402
      4 C         141.5513  138.1858  158.6719 C.ar    1  UNL1        0.1773
      5 C         140.4987  138.9608  159.4075 C.ar    1  UNL1        0.1402
      6 N         140.7064  139.3282  160.8470 N.ar    1  UNL1       -0.2089
      7 C         141.0972  137.0392  163.7197 C.3     1  UNL1        0.0233
      8 C         141.7397  138.3474  164.0746 C.3     1  UNL1        0.0955
      9 C         141.9475  138.7148  165.5139 C.3     1  UNL1        0.1149
     10 N         142.5900  140.0229  165.8689 N.pl3   1  UNL1       -0.2590
     11 C         143.0248  140.9636  164.7844 C.3     1  UNL1        0.1166
     12 C         142.8171  140.5961  163.3451 C.3     1  UNL1        0.1151
     13 N         142.1745  139.2880  162.9902 N.pl3   1  UNL1       -0.2764
     14 C         142.7978  140.3903  167.3083 C.ar    1  UNL1        0.3120
     15 N         142.8347  139.4364  168.4653 N.ar    1  UNL1       -0.0922
     16 N         143.0648  140.2327  169.7154 N.ar    1  UNL1       -0.1018
     17 C         143.1701  141.6789  169.3311 C.ar    1  UNL1        0.3233
     18 O         143.0051  141.7762  167.8434 O.2     1  UNL1       -0.4012
     19 C         143.4001  142.8261  170.2697 C.3     1  UNL1        0.4711
     20 F         143.6301  143.9733  171.2082 F       1  UNL1       -0.1619
     21 F         141.9207  142.9450  170.4868 F       1  UNL1       -0.1619
     22 F         144.8795  142.7072  170.0526 F       1  UNL1       -0.1619
     23 O         141.3436  137.8183  157.2325 O.3     1  UNL1       -0.4675
     24 C         142.4299  137.1155  156.4736 C.3     1  UNL1        0.2321
     25 C         142.3982  135.6229  156.3281 C.ar    1  UNL1        0.0211
     26 C         143.3235  134.7699  157.1442 C.ar    1  UNL1       -0.0010
     27 C         143.2917  133.2773  156.9987 C.ar    1  UNL1       -0.0028
     28 C         142.3346  132.6378  156.0369 C.ar    1  UNL1        0.0013
     29 C         141.4093  133.4908  155.2208 C.ar    1  UNL1       -0.0028
     30 C         141.4410  134.9833  155.3663 C.ar    1  UNL1       -0.0010
     31 C         142.3028  131.1452  155.8914 C.3     1  UNL1        0.1772
     32 S         143.5801  130.3834  155.6956 S.O2    1  UNL1       -0.0040
     33 C         144.8573  129.6216  155.4997 C.3     1  UNL1        0.1764
     34 O         143.7396  131.0000  154.3375 O.2     1  UNL1       -0.1726
     35 O         143.4205  129.7668  157.0536 O.2     1  UNL1       -0.1726
@<TRIPOS>BOND
     1     8     7    1
     2     8     9    1
     3     9    10    1
     4    10    14    1
     5    14    15   ar
     6    15    16   ar
     7    16    17   ar
     8    17    19    1
     9    19    20    1
    10    19    21    1
    11    19    22    1
    12    17    18   ar
    13    10    11    1
    14    11    12    1
    15    12    13    1
    16    13     1    1
    17     1     2   ar
    18     2     3   ar
    19     3     4   ar
    20     4    23    1
    21    23    24    1
    22    24    25    1
    23    25    26   ar
    24    26    27   ar
    25    27    28   ar
    26    28    31    1
    27    31    32    1
    28    32    33    1
    29    32    34    2
    30    32    35    2
    31    28    29   ar
    32    29    30   ar
    33     4     5   ar
    34     5     6   ar
    35    13     8    1
    36     6     1   ar
    37    18    14   ar
    38    30    25   ar
@<TRIPOS>MOLECULE
*****
 35 38 0 0 0
SMALL
GASTEIGER

@<TRIPOS>ATOM
      1 C         141.2194  138.9658  161.5934 C.ar    1  UNL1        0.2204
      2 N         142.3103  138.6918  160.6011 N.ar    1  UNL1       -0.2089
      3 C         141.9648  138.3463  159.1830 C.ar    1  UNL1        0.1402
      4 C         140.5283  138.2747  158.7571 C.ar    1  UNL1        0.1773
      5 C         139.4373  138.5488  159.7494 C.ar    1  UNL1        0.1402
      6 N         139.7829  138.8943  161.1676 N.ar    1  UNL1       -0.2089
      7 C         141.4196  141.8395  162.4311 C.3     1  UNL1        0.0233
      8 C         141.6650  140.7482  163.4305 C.3     1  UNL1        0.0955
      9 C         142.0106  141.0937  164.8486 C.3     1  UNL1        0.1149
     10 N         142.2561  140.0023  165.8480 N.pl3   1  UNL1       -0.2590
     11 C         142.1560  138.5655  165.4292 C.3     1  UNL1        0.1166
     12 C         141.8104  138.2200  164.0110 C.3     1  UNL1        0.1151
     13 N         141.5650  139.3114  163.0117 N.pl3   1  UNL1       -0.2764
     14 C         142.6017  140.3479  167.2662 C.ar    1  UNL1        0.3120
     15 N         142.8436  139.3704  168.3779 N.ar    1  UNL1       -0.0922
     16 N         143.1574  140.1500  169.6204 N.ar    1  UNL1       -0.1018
     17 C         143.1095  141.6093  169.2765 C.ar    1  UNL1        0.3233
     18 O         142.7660  141.7316  167.8215 O.2     1  UNL1       -0.4012
     19 C         143.3608  142.7466  170.2217 C.3     1  UNL1        0.4711
     20 F         143.6122  143.8839  171.1669 F       1  UNL1       -0.1619
     21 F         144.8387  142.5878  170.0197 F       1  UNL1       -0.1619
     22 F         141.8830  142.9054  170.4237 F       1  UNL1       -0.1619
     23 O         140.1828  137.9292  157.3389 O.3     1  UNL1       -0.4675
     24 C         141.2731  137.7360  156.3271 C.3     1  UNL1        0.2321
     25 C         141.8582  136.3727  156.1060 C.ar    1  UNL1        0.0211
     26 C         141.1243  135.3685  155.2675 C.ar    1  UNL1       -0.0010
     27 C         141.7094  134.0051  155.0464 C.ar    1  UNL1       -0.0028
     28 C         143.0283  133.6459  155.6638 C.ar    1  UNL1        0.0013
     29 C         143.7623  134.6500  156.5023 C.ar    1  UNL1       -0.0028
     30 C         143.1772  136.0134  156.7234 C.ar    1  UNL1       -0.0010
     31 C         143.6134  132.2825  155.4427 C.3     1  UNL1        0.1772
     32 S         144.1063  131.4796  156.6099 S.O2    1  UNL1       -0.0040
     33 C         144.5993  130.6767  157.7770 C.3     1  UNL1        0.1764
     34 O         142.6898  131.1801  157.0020 O.2     1  UNL1       -0.1726
     35 O         145.5228  131.7792  156.2177 O.2     1  UNL1       -0.1726
@<TRIPOS>BOND
     1     8     7    1
     2     8     9    1
     3     9    10    1
     4    10    14    1
     5    14    15   ar
     6    15    16   ar
     7    16    17   ar
     8    17    19    1
     9    19    20    1
    10    19    21    1
    11    19    22    1
    12    17    18   ar
    13    10    11    1
    14    11    12    1
    15    12    13    1
    16    13     1    1
    17     1     2   ar
    18     2     3   ar
    19     3     4   ar
    20     4    23    1
    21    23    24    1
    22    24    25    1
    23    25    26   ar
    24    26    27   ar
    25    27    28   ar
    26    28    31    1
    27    31    32    1
    28    32    33    1
    29    32    34    2
    30    32    35    2
    31    28    29   ar
    32    29    30   ar
    33     4     5   ar
    34     5     6   ar
    35    13     8    1
    36     6     1   ar
    37    18    14   ar
    38    30    25   ar
@<TRIPOS>MOLECULE
*****
 35 38 0 0 0
SMALL
GASTEIGER

@<TRIPOS>ATOM
      1 C         140.1479  142.0314  160.1627 C.ar    1  UNL1        0.2204
      2 N         138.9610  141.5706  160.9558 N.ar    1  UNL1       -0.2089
      3 C         139.0927  140.4103  161.8972 C.ar    1  UNL1        0.1402
      4 C         140.4113  139.7107  162.0456 C.ar    1  UNL1        0.1773
      5 C         141.5982  140.1715  161.2525 C.ar    1  UNL1        0.1402
      6 N         141.4665  141.3318  160.3110 N.ar    1  UNL1       -0.2089
      7 C         140.9995  144.7732  161.0329 C.3     1  UNL1        0.0233
      8 C         140.4420  144.5626  159.6563 C.3     1  UNL1        0.0955
      9 C         140.3103  145.7229  158.7149 C.3     1  UNL1        0.1149
     10 N         139.7528  145.5123  157.3384 N.pl3   1  UNL1       -0.2590
     11 C         139.3270  144.1414  156.9033 C.3     1  UNL1        0.1166
     12 C         139.4587  142.9811  157.8447 C.3     1  UNL1        0.1151
     13 N         140.0162  143.1917  159.2212 N.pl3   1  UNL1       -0.2764
     14 C         139.6211  146.6727  156.3969 C.ar    1  UNL1        0.3120
     15 N         140.1183  146.7214  154.9826 N.ar    1  UNL1       -0.0922
     16 N         139.7735  148.0668  154.4161 N.ar    1  UNL1       -0.1018
     17 C         139.0632  148.8497  155.4804 C.ar    1  UNL1        0.3233
     18 O         138.9690  147.9880  156.7046 O.2     1  UNL1       -0.4012
     19 C         138.5392  150.2486  155.3444 C.3     1  UNL1        0.4711
     20 F         138.0151  151.6474  155.2083 F       1  UNL1       -0.1619
     21 F         139.3272  150.4208  154.0797 F       1  UNL1       -0.1619
     22 F         137.7512  150.0764  156.6090 F       1  UNL1       -0.1619
     23 O         140.5429  138.5504  162.9870 O.3     1  UNL1       -0.4675
     24 C         139.4017  138.1826  163.8883 C.3     1  UNL1        0.2321
     25 C         139.3303  138.7468  165.2763 C.ar    1  UNL1        0.0211
     26 C         138.1323  138.4732  166.1364 C.ar    1  UNL1       -0.0010
     27 C         138.0609  139.0375  167.5244 C.ar    1  UNL1       -0.0028
     28 C         139.1876  139.8752  168.0523 C.ar    1  UNL1        0.0013
     29 C         140.3857  140.1488  167.1922 C.ar    1  UNL1       -0.0028
     30 C         140.4571  139.5846  165.8042 C.ar    1  UNL1       -0.0010
     31 C         139.1162  140.4394  169.4403 C.3     1  UNL1        0.1772
     32 S         140.3772  140.7883  170.1739 S.O2    1  UNL1       -0.0040
     33 C         141.6382  141.1373  170.9074 C.3     1  UNL1        0.1764
     34 O         140.0863  142.2470  169.9801 O.2     1  UNL1       -0.1726
     35 O         140.6681  139.3296  170.3677 O.2     1  UNL1       -0.1726
@<TRIPOS>BOND
     1     8     7    1
     2     8     9    1
     3     9    10    1
     4    10    14    1
     5    14    15   ar
     6    15    16   ar
     7    16    17   ar
     8    17    19    1
     9    19    20    1
    10    19    21    1
    11    19    22    1
    12    17    18   ar
    13    10    11    1
    14    11    12    1
    15    12    13    1
    16    13     1    1
    17     1     2   ar
    18     2     3   ar
    19     3     4   ar
    20     4    23    1
    21    23    24    1
    22    24    25    1
    23    25    26   ar
    24    26    27   ar
    25    27    28   ar
    26    28    31    1
    27    31    32    1
    28    32    33    1
    29    32    34    2
    30    32    35    2
    31    28    29   ar
    32    29    30   ar
    33     4     5   ar
    34     5     6   ar
    35    13     8    1
    36     6     1   ar
    37    18    14   ar
    38    30    25   ar
@<TRIPOS>MOLECULE
*****
 35 38 0 0 0
SMALL
GASTEIGER

@<TRIPOS>ATOM
      1 C         140.8179  138.5154  160.9597 C.ar    1  UNL1        0.2204
      2 N         139.7609  138.6983  159.9111 N.ar    1  UNL1       -0.2089
      3 C         140.0892  138.4638  158.4664 C.ar    1  UNL1        0.1402
      4 C         141.4744  138.0464  158.0702 C.ar    1  UNL1        0.1773
      5 C         142.5314  137.8635  159.1187 C.ar    1  UNL1        0.1402
      6 N         142.2031  138.0980  160.5635 N.ar    1  UNL1       -0.2089
      7 C         141.3419  141.1957  162.2012 C.3     1  UNL1        0.0233
      8 C         140.7516  140.0900  163.0252 C.3     1  UNL1        0.0955
      9 C         140.4233  140.3244  164.4699 C.3     1  UNL1        0.1149
     10 N         139.8329  139.2187  165.2938 N.pl3   1  UNL1       -0.2590
     11 C         139.5709  137.8786  164.6731 C.3     1  UNL1        0.1166
     12 C         139.8992  137.6442  163.2284 C.3     1  UNL1        0.1151
     13 N         140.4896  138.7499  162.4044 N.pl3   1  UNL1       -0.2764
     14 C         139.5046  139.4532  166.7386 C.ar    1  UNL1        0.3120
     15 N         138.2514  139.0196  167.4396 N.ar    1  UNL1       -0.0922
     16 N         138.3442  139.4609  168.8702 N.ar    1  UNL1       -0.1018
     17 C         139.6547  140.1673  169.0534 C.ar    1  UNL1        0.3233
     18 O         140.3719  140.1625  167.7360 O.2     1  UNL1       -0.4012
     19 C         140.1595  140.7722  170.3298 C.3     1  UNL1        0.4711
     20 F         140.6642  141.3771  171.6063 F       1  UNL1       -0.1619
     21 F         139.0873  141.8187  170.2579 F       1  UNL1       -0.1619
     22 F         141.2317  139.7257  170.4018 F       1  UNL1       -0.1619
     23 O         141.8027  137.8120  156.6255 O.3     1  UNL1       -0.4675
     24 C         142.9641  136.9391  156.2523 C.3     1  UNL1        0.2321
     25 C         142.7876  135.4520  156.1666 C.ar    1  UNL1        0.0211
     26 C         143.5735  134.5500  157.0714 C.ar    1  UNL1       -0.0010
     27 C         143.3969  133.0629  156.9856 C.ar    1  UNL1       -0.0028
     28 C         142.4345  132.4778  155.9950 C.ar    1  UNL1        0.0013
     29 C         141.6486  133.3798  155.0901 C.ar    1  UNL1       -0.0028
     30 C         141.8251  134.8669  155.1759 C.ar    1  UNL1       -0.0010
     31 C         142.2579  130.9907  155.9093 C.3     1  UNL1        0.1772
     32 S         143.4587  130.0976  155.8071 S.O2    1  UNL1       -0.0040
     33 C         144.6594  129.2044  155.7050 C.3     1  UNL1        0.1764
     34 O         143.1651  129.5470  157.1712 O.2     1  UNL1       -0.1726
     35 O         143.7522  130.6482  154.4431 O.2     1  UNL1       -0.1726
@<TRIPOS>BOND
     1     8     7    1
     2     8     9    1
     3     9    10    1
     4    10    14    1
     5    14    15   ar
     6    15    16   ar
     7    16    17   ar
     8    17    19    1
     9    19    20    1
    10    19    21    1
    11    19    22    1
    12    17    18   ar
    13    10    11    1
    14    11    12    1
    15    12    13    1
    16    13     1    1
    17     1     2   ar
    18     2     3   ar
    19     3     4   ar
    20     4    23    1
    21    23    24    1
    22    24    25    1
    23    25    26   ar
    24    26    27   ar
    25    27    28   ar
    26    28    31    1
    27    31    32    1
    28    32    33    1
    29    32    34    2
    30    32    35    2
    31    28    29   ar
    32    29    30   ar
    33     4     5   ar
    34     5     6   ar
    35    13     8    1
    36     6     1   ar
    37    18    14   ar
    38    30    25   ar
@<TRIPOS>MOLECULE
*****
 35 38 0 0 0
SMALL
GASTEIGER

@<TRIPOS>ATOM
      1 C         140.3174  141.1806  160.0578 C.ar    1  UNL1        0.2204
      2 N         138.8300  141.2125  160.2491 N.ar    1  UNL1       -0.2089
      3 C         138.1969  142.3326  161.0202 C.ar    1  UNL1        0.1402
      4 C         139.0512  143.4208  161.5999 C.ar    1  UNL1        0.1773
      5 C         140.5386  143.3889  161.4086 C.ar    1  UNL1        0.1402
      6 N         141.1717  142.2687  160.6375 N.ar    1  UNL1       -0.2089
      7 C         141.9418  139.1042  161.4897 C.3     1  UNL1        0.0233
      8 C         141.7627  139.0223  160.0027 C.3     1  UNL1        0.0955
      9 C         142.3958  137.9022  159.2316 C.3     1  UNL1        0.1149
     10 N         142.2166  137.8202  157.7446 N.pl3   1  UNL1       -0.2590
     11 C         141.4045  138.8583  157.0287 C.3     1  UNL1        0.1166
     12 C         140.7714  139.9784  157.7997 C.3     1  UNL1        0.1151
     13 N         140.9505  140.0604  159.2868 N.pl3   1  UNL1       -0.2764
     14 C         142.8497  136.7000  156.9736 C.ar    1  UNL1        0.3120
     15 N         143.3179  136.7639  155.5500 N.ar    1  UNL1       -0.0922
     16 N         143.8833  135.4227  155.1873 N.ar    1  UNL1       -0.1018
     17 C         143.7646  134.5299  156.3869 C.ar    1  UNL1        0.3233
     18 O         143.1258  135.3193  157.4908 O.2     1  UNL1       -0.4012
     19 C         144.2069  133.0989  156.4682 C.3     1  UNL1        0.4711
     20 F         144.6493  131.6679  156.5495 F       1  UNL1       -0.1619
     21 F         143.7062  132.8649  155.0738 F       1  UNL1       -0.1619
     22 F         144.7077  133.3329  157.8626 F       1  UNL1       -0.1619
     23 O         138.4181  144.5409  162.3709 O.3     1  UNL1       -0.4675
     24 C         137.8735  144.2909  163.7460 C.3     1  UNL1        0.2321
     25 C         138.5001  143.2474  164.6226 C.ar    1  UNL1        0.0211
     26 C         138.0104  141.8306  164.5692 C.ar    1  UNL1       -0.0010
     27 C         138.6371  140.7870  165.4458 C.ar    1  UNL1       -0.0028
     28 C         139.7532  141.1603  166.3757 C.ar    1  UNL1        0.0013
     29 C         140.2429  142.5771  166.4291 C.ar    1  UNL1       -0.0028
     30 C         139.6163  143.6207  165.5525 C.ar    1  UNL1       -0.0010
     31 C         140.3798  140.1167  167.2523 C.3     1  UNL1        0.1772
     32 S         140.2234  140.1961  168.7420 S.O2    1  UNL1       -0.0040
     33 C         140.0670  140.2755  170.2317 C.3     1  UNL1        0.1764
     34 O         141.6185  140.7345  168.8597 O.2     1  UNL1       -0.1726
     35 O         138.8283  139.6577  168.6242 O.2     1  UNL1       -0.1726
@<TRIPOS>BOND
     1     8     7    1
     2     8     9    1
     3     9    10    1
     4    10    14    1
     5    14    15   ar
     6    15    16   ar
     7    16    17   ar
     8    17    19    1
     9    19    20    1
    10    19    21    1
    11    19    22    1
    12    17    18   ar
    13    10    11    1
    14    11    12    1
    15    12    13    1
    16    13     1    1
    17     1     2   ar
    18     2     3   ar
    19     3     4   ar
    20     4    23    1
    21    23    24    1
    22    24    25    1
    23    25    26   ar
    24    26    27   ar
    25    27    28   ar
    26    28    31    1
    27    31    32    1
    28    32    33    1
    29    32    34    2
    30    32    35    2
    31    28    29   ar
    32    29    30   ar
    33     4     5   ar
    34     5     6   ar
    35    13     8    1
    36     6     1   ar
    37    18    14   ar
    38    30    25   ar
@<TRIPOS>MOLECULE
*****
 35 38 0 0 0
SMALL
GASTEIGER

@<TRIPOS>ATOM
      1 C         142.8346  140.8127  159.6599 C.ar    1  UNL1        0.2204
      2 N         144.1241  141.4898  160.0186 N.ar    1  UNL1       -0.2089
      3 C         144.1053  142.8118  160.7270 C.ar    1  UNL1        0.1402
      4 C         142.7970  143.4567  161.0768 C.ar    1  UNL1        0.1773
      5 C         141.5074  142.7796  160.7181 C.ar    1  UNL1        0.1402
      6 N         141.5263  141.4576  160.0096 N.ar    1  UNL1       -0.2089
      7 C         142.8498  138.2634  161.2413 C.3     1  UNL1        0.0233
      8 C         142.8610  138.2160  159.7421 C.3     1  UNL1        0.0955
      9 C         142.8799  136.8941  159.0335 C.3     1  UNL1        0.1149
     10 N         142.8912  136.8467  157.5343 N.pl3   1  UNL1       -0.2590
     11 C         142.8836  138.1214  156.7436 C.3     1  UNL1        0.1166
     12 C         142.8647  139.4433  157.4521 C.3     1  UNL1        0.1151
     13 N         142.8535  139.4907  158.9514 N.pl3   1  UNL1       -0.2764
     14 C         142.9100  135.5247  156.8258 C.ar    1  UNL1        0.3120
     15 N         141.8381  134.9941  155.9206 N.ar    1  UNL1       -0.0922
     16 N         142.2697  133.6427  155.4335 N.ar    1  UNL1       -0.1018
     17 C         143.6085  133.3380  156.0377 C.ar    1  UNL1        0.3233
     18 O         144.0042  134.5012  156.8982 O.2     1  UNL1       -0.4012
     19 C         144.4106  132.0894  155.8196 C.3     1  UNL1        0.4711
     20 F         145.2127  130.8408  155.6016 F       1  UNL1       -0.1619
     21 F         145.1968  132.3771  157.0642 F       1  UNL1       -0.1619
     22 F         143.6244  131.8017  154.5750 F       1  UNL1       -0.1619
     23 O         142.7782  144.7787  161.7853 O.3     1  UNL1       -0.4675
     24 C         143.3630  144.9007  163.1612 C.3     1  UNL1        0.2321
     25 C         142.9548  143.9391  164.2376 C.ar    1  UNL1        0.0211
     26 C         143.9981  143.1604  164.9827 C.ar    1  UNL1       -0.0010
     27 C         143.5898  142.1988  166.0592 C.ar    1  UNL1       -0.0028
     28 C         142.1383  142.0160  166.3905 C.ar    1  UNL1        0.0013
     29 C         141.0951  142.7947  165.6454 C.ar    1  UNL1       -0.0028
     30 C         141.5033  143.7563  164.5689 C.ar    1  UNL1       -0.0010
     31 C         141.7301  141.0544  167.4669 C.3     1  UNL1        0.1772
     32 S         142.4677  141.0332  168.7728 S.O2    1  UNL1       -0.0040
     33 C         143.2054  141.0120  170.0788 C.3     1  UNL1        0.1764
     34 O         142.9818  139.6592  168.4602 O.2     1  UNL1       -0.1726
     35 O         141.9537  142.4073  169.0855 O.2     1  UNL1       -0.1726
@<TRIPOS>BOND
     1     8     7    1
     2     8     9    1
     3     9    10    1
     4    10    14    1
     5    14    15   ar
     6    15    16   ar
     7    16    17   ar
     8    17    19    1
     9    19    20    1
    10    19    21    1
    11    19    22    1
    12    17    18   ar
    13    10    11    1
    14    11    12    1
    15    12    13    1
    16    13     1    1
    17     1     2   ar
    18     2     3   ar
    19     3     4   ar
    20     4    23    1
    21    23    24    1
    22    24    25    1
    23    25    26   ar
    24    26    27   ar
    25    27    28   ar
    26    28    31    1
    27    31    32    1
    28    32    33    1
    29    32    34    2
    30    32    35    2
    31    28    29   ar
    32    29    30   ar
    33     4     5   ar
    34     5     6   ar
    35    13     8    1
    36     6     1   ar
    37    18    14   ar
    38    30    25   ar
@<TRIPOS>MOLECULE
*****
 35 38 0 0 0
SMALL
GASTEIGER

@<TRIPOS>ATOM
      1 C         141.1730  141.8048  160.6740 C.ar    1  UNL1        0.2204
      2 N         140.1432  141.3437  161.6624 N.ar    1  UNL1       -0.2089
      3 C         140.4787  140.2615  162.6453 C.ar    1  UNL1        0.1402
      4 C         141.8442  139.6404  162.6400 C.ar    1  UNL1        0.1773
      5 C         142.8740  140.1016  161.6517 C.ar    1  UNL1        0.1402
      6 N         142.5384  141.1838  160.6687 N.ar    1  UNL1       -0.2089
      7 C         141.7638  144.6702  161.3378 C.3     1  UNL1        0.0233
      8 C         141.1328  144.3197  160.0229 C.3     1  UNL1        0.0955
      9 C         140.7971  145.4018  159.0400 C.3     1  UNL1        0.1149
     10 N         140.1661  145.0513  157.7251 N.pl3   1  UNL1       -0.2590
     11 C         139.8707  143.6187  157.3931 C.3     1  UNL1        0.1166
     12 C         140.2064  142.5365  158.3761 C.3     1  UNL1        0.1151
     13 N         140.8374  142.8870  159.6910 N.pl3   1  UNL1       -0.2764
     14 C         139.8305  146.1335  156.7421 C.ar    1  UNL1        0.3120
     15 N         140.0092  146.0599  155.2546 N.ar    1  UNL1       -0.0922
     16 N         139.5464  147.3602  154.6672 N.ar    1  UNL1       -0.1018
     17 C         139.0817  148.2375  155.7917 C.ar    1  UNL1        0.3233
     18 O         139.2573  147.4794  157.0740 O.2     1  UNL1       -0.4012
     19 C         138.5371  149.6287  155.6575 C.3     1  UNL1        0.4711
     20 F         137.9924  151.0198  155.5232 F       1  UNL1       -0.1619
     21 F         138.9791  149.6635  154.2245 F       1  UNL1       -0.1619
     22 F         138.0950  149.5939  157.0904 F       1  UNL1       -0.1619
     23 O         142.1797  138.5583  163.6230 O.3     1  UNL1       -0.4675
     24 C         143.2669  138.7738  164.6337 C.3     1  UNL1        0.2321
     25 C         143.0660  139.7499  165.7547 C.ar    1  UNL1        0.0211
     26 C         142.5059  139.2820  167.0652 C.ar    1  UNL1       -0.0010
     27 C         142.3050  140.2581  168.1863 C.ar    1  UNL1       -0.0028
     28 C         142.6641  141.7021  167.9969 C.ar    1  UNL1        0.0013
     29 C         143.2242  142.1700  166.6865 C.ar    1  UNL1       -0.0028
     30 C         143.4252  141.1940  165.5654 C.ar    1  UNL1       -0.0010
     31 C         142.4632  142.6782  169.1180 C.3     1  UNL1        0.1772
     32 S         141.1653  142.7003  169.8697 S.O2    1  UNL1       -0.0040
     33 C         139.8674  142.7223  170.6213 C.3     1  UNL1        0.1764
     34 O         140.4791  143.2788  168.6678 O.2     1  UNL1       -0.1726
     35 O         141.8514  142.1217  171.0715 O.2     1  UNL1       -0.1726
@<TRIPOS>BOND
     1     8     7    1
     2     8     9    1
     3     9    10    1
     4    10    14    1
     5    14    15   ar
     6    15    16   ar
     7    16    17   ar
     8    17    19    1
     9    19    20    1
    10    19    21    1
    11    19    22    1
    12    17    18   ar
    13    10    11    1
    14    11    12    1
    15    12    13    1
    16    13     1    1
    17     1     2   ar
    18     2     3   ar
    19     3     4   ar
    20     4    23    1
    21    23    24    1
    22    24    25    1
    23    25    26   ar
    24    26    27   ar
    25    27    28   ar
    26    28    31    1
    27    31    32    1
    28    32    33    1
    29    32    34    2
    30    32    35    2
    31    28    29   ar
    32    29    30   ar
    33     4     5   ar
    34     5     6   ar
    35    13     8    1
    36     6     1   ar
    37    18    14   ar
    38    30    25   ar
@<TRIPOS>MOLECULE
*****
 35 38 0 0 0
SMALL
GASTEIGER

@<TRIPOS>ATOM
      1 C         141.0297  141.4300  159.2335 C.ar    1  UNL1        0.2204
      2 N         139.6919  141.5203  159.9058 N.ar    1  UNL1       -0.2089
      3 C         139.1971  142.8407  160.4173 C.ar    1  UNL1        0.1402
      4 C         140.0403  144.0709  160.2565 C.ar    1  UNL1        0.1773
      5 C         141.3781  143.9806  159.5842 C.ar    1  UNL1        0.1402
      6 N         141.8728  142.6601  159.0727 N.ar    1  UNL1       -0.2089
      7 C         142.5719  139.6021  161.0447 C.3     1  UNL1        0.0233
      8 C         142.2955  139.1956  159.6276 C.3     1  UNL1        0.0955
      9 C         142.7902  137.8752  159.1160 C.3     1  UNL1        0.1149
     10 N         142.5138  137.4686  157.6989 N.pl3   1  UNL1       -0.2590
     11 C         141.7427  138.3825  156.7933 C.3     1  UNL1        0.1166
     12 C         141.2481  139.7030  157.3048 C.3     1  UNL1        0.1151
     13 N         141.5244  140.1095  158.7219 N.pl3   1  UNL1       -0.2764
     14 C         143.0085  136.1481  157.1874 C.ar    1  UNL1        0.3120
     15 N         143.4195  135.8470  155.7766 N.ar    1  UNL1       -0.0922
     16 N         143.8441  134.4097  155.7142 N.ar    1  UNL1       -0.1018
     17 C         143.6955  133.8225  157.0865 C.ar    1  UNL1        0.3233
     18 O         143.1791  134.8969  157.9969 O.2     1  UNL1       -0.4012
     19 C         144.0084  132.4091  157.4793 C.3     1  UNL1        0.4711
     20 F         144.3213  130.9957  157.8721 F       1  UNL1       -0.1619
     21 F         145.3673  132.8396  157.9461 F       1  UNL1       -0.1619
     22 F         142.6495  131.9785  157.0125 F       1  UNL1       -0.1619
     23 O         139.5455  145.3914  160.7680 O.3     1  UNL1       -0.4675
     24 C         140.0778  145.9434  162.0571 C.3     1  UNL1        0.2321
     25 C         140.1869  145.0588  163.2636 C.ar    1  UNL1        0.0211
     26 C         138.9988  144.8597  164.1574 C.ar    1  UNL1       -0.0010
     27 C         139.1079  143.9751  165.3639 C.ar    1  UNL1       -0.0028
     28 C         140.4050  143.2897  165.6766 C.ar    1  UNL1        0.0013
     29 C         141.5930  143.4888  164.7828 C.ar    1  UNL1       -0.0028
     30 C         141.4840  144.3734  163.5763 C.ar    1  UNL1       -0.0010
     31 C         140.5140  142.4051  166.8830 C.3     1  UNL1        0.1772
     32 S         140.9926  140.9912  166.7356 S.O2    1  UNL1       -0.0040
     33 C         141.4713  139.5773  166.5882 C.3     1  UNL1        0.1764
     34 O         139.7113  140.6295  166.0446 O.2     1  UNL1       -0.1726
     35 O         142.2739  141.3529  167.4266 O.2     1  UNL1       -0.1726
@<TRIPOS>BOND
     1     8     7    1
     2     8     9    1
     3     9    10    1
     4    10    14    1
     5    14    15   ar
     6    15    16   ar
     7    16    17   ar
     8    17    19    1
     9    19    20    1
    10    19    21    1
    11    19    22    1
    12    17    18   ar
    13    10    11    1
    14    11    12    1
    15    12    13    1
    16    13     1    1
    17     1     2   ar
    18     2     3   ar
    19     3     4   ar
    20     4    23    1
    21    23    24    1
    22    24    25    1
    23    25    26   ar
    24    26    27   ar
    25    27    28   ar
    26    28    31    1
    27    31    32    1
    28    32    33    1
    29    32    34    2
    30    32    35    2
    31    28    29   ar
    32    29    30   ar
    33     4     5   ar
    34     5     6   ar
    35    13     8    1
    36     6     1   ar
    37    18    14   ar
    38    30    25   ar
@<TRIPOS>MOLECULE
*****
 35 38 0 0 0
SMALL
GASTEIGER

@<TRIPOS>ATOM
      1 C         141.0525  141.5145  159.5204 C.ar    1  UNL1        0.2204
      2 N         142.0109  142.4837  160.1468 N.ar    1  UNL1       -0.2089
      3 C         141.5056  143.7762  160.7161 C.ar    1  UNL1        0.1402
      4 C         140.0420  144.0996  160.6590 C.ar    1  UNL1        0.1773
      5 C         139.0836  143.1304  160.0327 C.ar    1  UNL1        0.1402
      6 N         139.5889  141.8378  159.4634 N.ar    1  UNL1       -0.2089
      7 C         141.6240  139.1967  161.3374 C.3     1  UNL1        0.0233
      8 C         141.8436  139.0631  159.8596 C.3     1  UNL1        0.0955
      9 C         142.3489  137.7707  159.2902 C.3     1  UNL1        0.1149
     10 N         142.5684  137.6370  157.8124 N.pl3   1  UNL1       -0.2590
     11 C         142.2827  138.7959  156.9039 C.3     1  UNL1        0.1166
     12 C         141.7774  140.0883  157.4733 C.3     1  UNL1        0.1151
     13 N         141.5578  140.2220  158.9511 N.pl3   1  UNL1       -0.2764
     14 C         143.0737  136.3445  157.2431 C.ar    1  UNL1        0.3120
     15 N         143.4170  136.0887  155.8055 N.ar    1  UNL1       -0.0922
     16 N         143.8799  134.6669  155.6854 N.ar    1  UNL1       -0.1018
     17 C         143.8227  134.0441  157.0488 C.ar    1  UNL1        0.3233
     18 O         143.3245  135.0809  158.0115 O.2     1  UNL1       -0.4012
     19 C         144.1979  132.6323  157.3896 C.3     1  UNL1        0.4711
     20 F         144.5731  131.2206  157.7305 F       1  UNL1       -0.1619
     21 F         143.2583  132.1280  156.3347 F       1  UNL1       -0.1619
     22 F         145.1374  133.1367  158.4445 F       1  UNL1       -0.1619
     23 O         139.5367  145.3920  161.2283 O.3     1  UNL1       -0.4675
     24 C         138.9557  145.4264  162.6108 C.3     1  UNL1        0.2321
     25 C         139.0223  144.2078  163.4828 C.ar    1  UNL1        0.0211
     26 C         140.2378  143.9531  164.3241 C.ar    1  UNL1       -0.0010
     27 C         140.3043  142.7344  165.1962 C.ar    1  UNL1       -0.0028
     28 C         139.1555  141.7705  165.2269 C.ar    1  UNL1        0.0013
     29 C         137.9400  142.0252  164.3856 C.ar    1  UNL1       -0.0028
     30 C         137.8734  143.2438  163.5136 C.ar    1  UNL1       -0.0010
     31 C         139.2221  140.5519  166.0990 C.3     1  UNL1        0.1772
     32 S         139.0234  139.1903  165.5016 S.O2    1  UNL1       -0.0040
     33 C         138.8247  137.8288  164.9043 C.3     1  UNL1        0.1764
     34 O         140.3399  139.3093  164.7927 O.2     1  UNL1       -0.1726
     35 O         137.7069  139.0714  166.2105 O.2     1  UNL1       -0.1726
@<TRIPOS>BOND
     1     8     7    1
     2     8     9    1
     3     9    10    1
     4    10    14    1
     5    14    15   ar
     6    15    16   ar
     7    16    17   ar
     8    17    19    1
     9    19    20    1
    10    19    21    1
    11    19    22    1
    12    17    18   ar
    13    10    11    1
    14    11    12    1
    15    12    13    1
    16    13     1    1
    17     1     2   ar
    18     2     3   ar
    19     3     4   ar
    20     4    23    1
    21    23    24    1
    22    24    25    1
    23    25    26   ar
    24    26    27   ar
    25    27    28   ar
    26    28    31    1
    27    31    32    1
    28    32    33    1
    29    32    34    2
    30    32    35    2
    31    28    29   ar
    32    29    30   ar
    33     4     5   ar
    34     5     6   ar
    35    13     8    1
    36     6     1   ar
    37    18    14   ar
    38    30    25   ar
