@<TRIPOS>MOLECULE
*****
 24 27 0 0 0
SMALL
GASTEIGER

@<TRIPOS>ATOM
      1 C         142.1098  140.1509  166.9595 C.ar    1  UNL1       -0.0207
      2 C         140.7271  139.9112  166.4299 C.ar    1  UNL1       -0.0027
      3 C         140.1709  140.7986  165.3561 C.ar    1  UNL1        0.0188
      4 C         140.9975  141.9258  164.8119 C.ar    1  UNL1        0.0813
      5 N         140.4414  142.8133  163.7380 N.ar    1  UNL1       -0.2439
      6 C         141.2680  143.9404  163.1938 C.ar    1  UNL1        0.0983
      7 C         142.6508  144.1802  163.7234 C.ar    1  UNL1        0.0207
      8 C         143.2069  143.2927  164.7972 C.ar    1  UNL1        0.0031
      9 C         142.3803  142.1655  165.3414 C.ar    1  UNL1        0.0174
     10 C         142.9364  141.2781  166.4153 C.ar    1  UNL1       -0.0027
     11 C         140.7118  144.8279  162.1199 C.ar    1  UNL1        0.0930
     12 C         140.8906  144.6421  160.6422 C.ar    1  UNL1        0.0424
     13 C         140.1686  145.7563  159.9443 C.ar    1  UNL1        0.1215
     14 N         139.5435  146.6307  160.9907 N.ar    1  UNL1       -0.1710
     15 N         139.8793  146.0569  162.3353 N.ar    1  UNL1       -0.2742
     16 H         139.6020  146.4227  163.2062 H       1  UNL1        0.1890
     17 C         142.6660  139.2635  168.0334 C.3     1  UNL1        0.0437
     18 C         142.4003  139.5753  169.4763 C.3     1  UNL1        0.0768
     19 C         143.8859  142.4651  169.7789 C.3     1  UNL1        0.0173
     20 C         142.4258  142.1976  169.9944 C.3     1  UNL1        0.0576
     21 C         141.3921  143.2113  170.3868 C.3     1  UNL1        0.0174
     22 C         140.0704  142.5095  170.4902 C.3     1  UNL1        0.0187
     23 C         140.2872  141.0620  170.1617 C.3     1  UNL1        0.0721
     24 N         141.7429  140.8693  169.8553 N.3     1  UNL1       -0.2737
@<TRIPOS>BOND
     1    20    19    1
     2    20    21    1
     3    21    22    1
     4    22    23    1
     5    23    24    1
     6    24    18    1
     7    18    17    1
     8    17     1    1
     9     1     2   ar
    10     2     3   ar
    11     3     4   ar
    12     4     5   ar
    13     5     6   ar
    14     6    11    1
    15    11    12   ar
    16    12    13   ar
    17    13    14   ar
    18    14    15   ar
    19     6     7   ar
    20     7     8   ar
    21     8     9   ar
    22     9    10   ar
    23    24    20    1
    24    10     1   ar
    25     9     4   ar
    26    15    11   ar
    27    15    16    1
@<TRIPOS>MOLECULE
*****
 24 27 0 0 0
SMALL
GASTEIGER

@<TRIPOS>ATOM
      1 C         138.5736  139.3323  165.7259 C.ar    1  UNL1       -0.0207
      2 C         138.8223  138.0060  165.0710 C.ar    1  UNL1       -0.0027
      3 C         138.8319  137.8984  163.5749 C.ar    1  UNL1        0.0188
      4 C         138.5929  139.1171  162.7337 C.ar    1  UNL1        0.0813
      5 N         138.6025  139.0095  161.2376 N.ar    1  UNL1       -0.2439
      6 C         138.3635  140.2282  160.3964 C.ar    1  UNL1        0.0983
      7 C         138.1148  141.5546  161.0514 C.ar    1  UNL1        0.0207
      8 C         138.1052  141.6622  162.5475 C.ar    1  UNL1        0.0031
      9 C         138.3442  140.4435  163.3886 C.ar    1  UNL1        0.0174
     10 C         138.3346  140.5511  164.8847 C.ar    1  UNL1       -0.0027
     11 C         138.3732  140.1206  158.9003 C.ar    1  UNL1        0.0930
     12 C         139.5682  139.8177  158.0458 C.ar    1  UNL1        0.0424
     13 C         139.1231  139.8069  156.6134 C.ar    1  UNL1        0.1215
     14 N         137.6529  140.1032  156.5827 N.ar    1  UNL1       -0.1710
     15 N         137.1895  140.2970  157.9961 N.ar    1  UNL1       -0.2742
     16 H         136.2699  140.5038  158.2803 H       1  UNL1        0.1890
     17 C         138.5639  139.4400  167.2220 C.3     1  UNL1        0.0437
     18 C         139.8294  139.7654  167.9587 C.3     1  UNL1        0.0768
     19 C         140.9765  142.5681  166.7430 C.3     1  UNL1        0.0173
     20 C         140.4800  142.3516  168.1418 C.3     1  UNL1        0.0576
     21 C         140.4237  143.3852  169.2273 C.3     1  UNL1        0.0174
     22 C         139.8616  142.7357  170.4571 C.3     1  UNL1        0.0187
     23 C         139.5705  141.3006  170.1315 C.3     1  UNL1        0.0721
     24 N         139.9528  141.0633  168.7006 N.3     1  UNL1       -0.2737
@<TRIPOS>BOND
     1    20    19    1
     2    20    21    1
     3    21    22    1
     4    22    23    1
     5    23    24    1
     6    24    18    1
     7    18    17    1
     8    17     1    1
     9     1     2   ar
    10     2     3   ar
    11     3     4   ar
    12     4     5   ar
    13     5     6   ar
    14     6    11    1
    15    11    12   ar
    16    12    13   ar
    17    13    14   ar
    18    14    15   ar
    19     6     7   ar
    20     7     8   ar
    21     8     9   ar
    22     9    10   ar
    23    24    20    1
    24    10     1   ar
    25     9     4   ar
    26    15    11   ar
    27    15    16    1
@<TRIPOS>MOLECULE
*****
 24 27 0 0 0
SMALL
GASTEIGER

@<TRIPOS>ATOM
      1 C         140.0701  140.0940  165.2991 C.ar    1  UNL1       -0.0207
      2 C         138.9890  139.0948  165.0119 C.ar    1  UNL1       -0.0027
      3 C         138.0953  138.6181  166.1183 C.ar    1  UNL1        0.0188
      4 C         138.2828  139.1406  167.5118 C.ar    1  UNL1        0.0813
      5 N         137.3891  138.6638  168.6182 N.ar    1  UNL1       -0.2439
      6 C         137.5767  139.1863  170.0116 C.ar    1  UNL1        0.0983
      7 C         138.6579  140.1856  170.2987 C.ar    1  UNL1        0.0207
      8 C         139.5516  140.6623  169.1924 C.ar    1  UNL1        0.0031
      9 C         139.3640  140.1398  167.7989 C.ar    1  UNL1        0.0174
     10 C         140.2577  140.6165  166.6926 C.ar    1  UNL1       -0.0027
     11 C         136.6830  138.7096  171.1180 C.ar    1  UNL1        0.0930
     12 C         136.6794  137.3348  171.7181 C.ar    1  UNL1        0.0424
     13 C         135.6302  137.2995  172.7895 C.ar    1  UNL1        0.1215
     14 N         134.9854  138.6524  172.8516 N.ar    1  UNL1       -0.1710
     15 N         135.6360  139.5239  171.8185 N.ar    1  UNL1       -0.2742
     16 H         135.4148  140.4650  171.6329 H       1  UNL1        0.1890
     17 C         140.9639  140.5708  164.1927 C.3     1  UNL1        0.0437
     18 C         140.6085  141.8074  163.4216 C.3     1  UNL1        0.0768
     19 C         137.3543  141.8915  163.1928 C.3     1  UNL1        0.0173
     20 C         138.2122  142.8783  163.9278 C.3     1  UNL1        0.0576
     21 C         137.7250  144.0769  164.6867 C.3     1  UNL1        0.0174
     22 C         138.9197  144.7791  165.2609 C.3     1  UNL1        0.0187
     23 C         140.1453  144.0143  164.8569 C.3     1  UNL1        0.0721
     24 N         139.7080  142.8396  164.0330 N.3     1  UNL1       -0.2737
@<TRIPOS>BOND
     1    20    19    1
     2    20    21    1
     3    21    22    1
     4    22    23    1
     5    23    24    1
     6    24    18    1
     7    18    17    1
     8    17     1    1
     9     1     2   ar
    10     2     3   ar
    11     3     4   ar
    12     4     5   ar
    13     5     6   ar
    14     6    11    1
    15    11    12   ar
    16    12    13   ar
    17    13    14   ar
    18    14    15   ar
    19     6     7   ar
    20     7     8   ar
    21     8     9   ar
    22     9    10   ar
    23    24    20    1
    24    10     1   ar
    25     9     4   ar
    26    15    11   ar
    27    15    16    1
@<TRIPOS>MOLECULE
*****
 24 27 0 0 0
SMALL
GASTEIGER

@<TRIPOS>ATOM
      1 C         139.6713  140.4761  166.6686 C.ar    1  UNL1       -0.0207
      2 C         139.6596  139.5719  165.4719 C.ar    1  UNL1       -0.0027
      3 C         139.8783  140.1395  164.1008 C.ar    1  UNL1        0.0188
      4 C         140.1087  141.6114  163.9264 C.ar    1  UNL1        0.0813
      5 N         140.3275  142.1791  162.5553 N.ar    1  UNL1       -0.2439
      6 C         140.5579  143.6510  162.3809 C.ar    1  UNL1        0.0983
      7 C         140.5696  144.5553  163.5777 C.ar    1  UNL1        0.0207
      8 C         140.3508  143.9876  164.9488 C.ar    1  UNL1        0.0031
      9 C         140.1204  142.5157  165.1232 C.ar    1  UNL1        0.0174
     10 C         139.9017  141.9480  166.4942 C.ar    1  UNL1       -0.0027
     11 C         140.7766  144.2187  161.0099 C.ar    1  UNL1        0.0930
     12 C         139.9549  143.9208  159.7908 C.ar    1  UNL1        0.0424
     13 C         140.5259  144.7019  158.6446 C.ar    1  UNL1        0.1215
     14 N         141.7005  145.4826  159.1553 N.ar    1  UNL1       -0.1710
     15 N         141.8555  145.1840  160.6171 N.ar    1  UNL1       -0.2742
     16 H         142.5443  145.5561  161.2139 H       1  UNL1        0.1890
     17 C         139.4525  139.9084  168.0397 C.3     1  UNL1        0.0437
     18 C         139.6805  140.7637  169.2507 C.3     1  UNL1        0.0768
     19 C         140.4328  143.8847  169.8365 C.3     1  UNL1        0.0173
     20 C         141.3962  142.7352  169.8118 C.3     1  UNL1        0.0576
     21 C         142.8745  142.8185  170.0521 C.3     1  UNL1        0.0174
     22 C         143.4424  141.4353  169.9313 C.3     1  UNL1        0.0187
     23 C         142.3150  140.4973  169.6164 C.3     1  UNL1        0.0721
     24 N         141.0504  141.3007  169.5426 N.3     1  UNL1       -0.2737
@<TRIPOS>BOND
     1    20    19    1
     2    20    21    1
     3    21    22    1
     4    22    23    1
     5    23    24    1
     6    24    18    1
     7    18    17    1
     8    17     1    1
     9     1     2   ar
    10     2     3   ar
    11     3     4   ar
    12     4     5   ar
    13     5     6   ar
    14     6    11    1
    15    11    12   ar
    16    12    13   ar
    17    13    14   ar
    18    14    15   ar
    19     6     7   ar
    20     7     8   ar
    21     8     9   ar
    22     9    10   ar
    23    24    20    1
    24    10     1   ar
    25     9     4   ar
    26    15    11   ar
    27    15    16    1
@<TRIPOS>MOLECULE
*****
 24 27 0 0 0
SMALL
GASTEIGER

@<TRIPOS>ATOM
      1 C         139.3818  137.6634  164.5645 C.ar    1  UNL1       -0.0207
      2 C         140.8649  137.5015  164.7196 C.ar    1  UNL1       -0.0027
      3 C         141.7625  137.6312  163.5248 C.ar    1  UNL1        0.0188
      4 C         141.1769  137.9228  162.1749 C.ar    1  UNL1        0.0813
      5 N         142.0746  138.0525  160.9801 N.ar    1  UNL1       -0.2439
      6 C         141.4890  138.3440  159.6303 C.ar    1  UNL1        0.0983
      7 C         140.0058  138.5059  159.4752 C.ar    1  UNL1        0.0207
      8 C         139.1082  138.3763  160.6700 C.ar    1  UNL1        0.0031
      9 C         139.6938  138.0847  162.0198 C.ar    1  UNL1        0.0174
     10 C         138.7962  137.9550  163.2146 C.ar    1  UNL1       -0.0027
     11 C         142.3866  138.4737  158.4355 C.ar    1  UNL1        0.0930
     12 C         142.2624  137.7072  157.1521 C.ar    1  UNL1        0.0424
     13 C         143.3650  138.1524  156.2377 C.ar    1  UNL1        0.1215
     14 N         144.1706  139.1941  156.9561 N.ar    1  UNL1       -0.1710
     15 N         143.5658  139.3927  158.3143 N.ar    1  UNL1       -0.2742
     16 H         143.8866  140.0166  159.0050 H       1  UNL1        0.1890
     17 C         138.4841  137.5338  165.7593 C.3     1  UNL1        0.0437
     18 C         138.0507  138.7590  166.5082 C.3     1  UNL1        0.0768
     19 C         138.3541  141.3391  164.5333 C.3     1  UNL1        0.0173
     20 C         139.1436  141.0884  165.7838 C.3     1  UNL1        0.0576
     21 C         140.2111  141.9795  166.3461 C.3     1  UNL1        0.0174
     22 C         140.7314  141.3444  167.6015 C.3     1  UNL1        0.0187
     23 C         139.9854  140.0606  167.8150 C.3     1  UNL1        0.0721
     24 N         139.0041  139.9024  166.6916 N.3     1  UNL1       -0.2737
@<TRIPOS>BOND
     1    20    19    1
     2    20    21    1
     3    21    22    1
     4    22    23    1
     5    23    24    1
     6    24    18    1
     7    18    17    1
     8    17     1    1
     9     1     2   ar
    10     2     3   ar
    11     3     4   ar
    12     4     5   ar
    13     5     6   ar
    14     6    11    1
    15    11    12   ar
    16    12    13   ar
    17    13    14   ar
    18    14    15   ar
    19     6     7   ar
    20     7     8   ar
    21     8     9   ar
    22     9    10   ar
    23    24    20    1
    24    10     1   ar
    25     9     4   ar
    26    15    11   ar
    27    15    16    1
@<TRIPOS>MOLECULE
*****
 24 27 0 0 0
SMALL
GASTEIGER

@<TRIPOS>ATOM
      1 C         139.4335  138.4742  163.5387 C.ar    1  UNL1       -0.0207
      2 C         140.7668  139.1610  163.5186 C.ar    1  UNL1       -0.0027
      3 C         141.2857  139.8278  164.7580 C.ar    1  UNL1        0.0188
      4 C         140.4713  139.8077  166.0175 C.ar    1  UNL1        0.0813
      5 N         140.9903  140.4746  167.2569 N.ar    1  UNL1       -0.2439
      6 C         140.1759  140.4546  168.5164 C.ar    1  UNL1        0.0983
      7 C         138.8425  139.7677  168.5365 C.ar    1  UNL1        0.0207
      8 C         138.3236  139.1009  167.2971 C.ar    1  UNL1        0.0031
      9 C         139.1380  139.1209  166.0376 C.ar    1  UNL1        0.0174
     10 C         138.6191  138.4542  164.7982 C.ar    1  UNL1       -0.0027
     11 C         140.6948  141.1213  169.7557 C.ar    1  UNL1        0.0930
     12 C         142.1001  141.5961  169.9790 C.ar    1  UNL1        0.0424
     13 C         142.1734  142.1986  171.3507 C.ar    1  UNL1        0.1215
     14 N         140.8133  142.0962  171.9752 N.ar    1  UNL1       -0.1710
     15 N         139.8996  141.4304  170.9894 N.ar    1  UNL1       -0.2742
     16 H         138.9454  141.2313  171.1279 H       1  UNL1        0.1890
     17 C         138.9145  137.8074  162.2993 C.3     1  UNL1        0.0437
     18 C         137.8487  138.4726  161.4800 C.3     1  UNL1        0.0768
     19 C         137.4194  141.3813  162.8958 C.3     1  UNL1        0.0173
     20 C         137.9144  141.1448  161.4998 C.3     1  UNL1        0.0576
     21 C         138.2989  142.2037  160.5094 C.3     1  UNL1        0.0174
     22 C         138.7339  141.5212  159.2464 C.3     1  UNL1        0.0187
     23 C         138.6182  140.0404  159.4563 C.3     1  UNL1        0.0721
     24 N         138.1117  139.8079  160.8490 N.3     1  UNL1       -0.2737
@<TRIPOS>BOND
     1    20    19    1
     2    20    21    1
     3    21    22    1
     4    22    23    1
     5    23    24    1
     6    24    18    1
     7    18    17    1
     8    17     1    1
     9     1     2   ar
    10     2     3   ar
    11     3     4   ar
    12     4     5   ar
    13     5     6   ar
    14     6    11    1
    15    11    12   ar
    16    12    13   ar
    17    13    14   ar
    18    14    15   ar
    19     6     7   ar
    20     7     8   ar
    21     8     9   ar
    22     9    10   ar
    23    24    20    1
    24    10     1   ar
    25     9     4   ar
    26    15    11   ar
    27    15    16    1
@<TRIPOS>MOLECULE
*****
 24 27 0 0 0
SMALL
GASTEIGER

@<TRIPOS>ATOM
      1 C         143.5045  142.9744  164.7381 C.ar    1  UNL1       -0.0207
      2 C         144.4964  142.5872  163.6816 C.ar    1  UNL1       -0.0027
      3 C         144.2664  142.9869  162.2543 C.ar    1  UNL1        0.0188
      4 C         143.0445  143.7739  161.8834 C.ar    1  UNL1        0.0813
      5 N         142.8145  144.1737  160.4560 N.ar    1  UNL1       -0.2439
      6 C         141.5926  144.9607  160.0852 C.ar    1  UNL1        0.0983
      7 C         140.6007  145.3480  161.1417 C.ar    1  UNL1        0.0207
      8 C         140.8307  144.9482  162.5690 C.ar    1  UNL1        0.0031
      9 C         142.0526  144.1612  162.9399 C.ar    1  UNL1        0.0174
     10 C         142.2826  143.7615  164.3672 C.ar    1  UNL1       -0.0027
     11 C         141.3626  145.3604  158.6579 C.ar    1  UNL1        0.0930
     12 C         140.0345  145.4254  157.9635 C.ar    1  UNL1        0.0424
     13 C         140.2713  145.8705  156.5508 C.ar    1  UNL1        0.1215
     14 N         141.7458  146.0806  156.3721 N.ar    1  UNL1       -0.1710
     15 N         142.4202  145.7653  157.6743 N.ar    1  UNL1       -0.2742
     16 H         143.3872  145.8154  157.8522 H       1  UNL1        0.1890
     17 C         143.7345  142.5747  166.1655 C.3     1  UNL1        0.0437
     18 C         142.6879  141.7939  166.9036 C.3     1  UNL1        0.0768
     19 C         143.9859  142.3474  169.8461 C.3     1  UNL1        0.0173
     20 C         142.5796  142.6618  169.4296 C.3     1  UNL1        0.0576
     21 C         141.5231  143.2857  170.2923 C.3     1  UNL1        0.0174
     22 C         140.2734  143.4170  169.4730 C.3     1  UNL1        0.0187
     23 C         140.5577  142.8741  168.1038 C.3     1  UNL1        0.0721
     24 N         141.9830  142.4074  168.0771 N.3     1  UNL1       -0.2737
@<TRIPOS>BOND
     1    20    19    1
     2    20    21    1
     3    21    22    1
     4    22    23    1
     5    23    24    1
     6    24    18    1
     7    18    17    1
     8    17     1    1
     9     1     2   ar
    10     2     3   ar
    11     3     4   ar
    12     4     5   ar
    13     5     6   ar
    14     6    11    1
    15    11    12   ar
    16    12    13   ar
    17    13    14   ar
    18    14    15   ar
    19     6     7   ar
    20     7     8   ar
    21     8     9   ar
    22     9    10   ar
    23    24    20    1
    24    10     1   ar
    25     9     4   ar
    26    15    11   ar
    27    15    16    1
@<TRIPOS>MOLECULE
*****
 24 27 0 0 0
SMALL
GASTEIGER

@<TRIPOS>ATOM
      1 C         138.5042  139.1471  165.6192 C.ar    1  UNL1       -0.0207
      2 C         138.9181  137.8636  164.9626 C.ar    1  UNL1       -0.0027
      3 C         138.9805  137.7725  163.4667 C.ar    1  UNL1        0.0188
      4 C         138.6289  138.9649  162.6274 C.ar    1  UNL1        0.0813
      5 N         138.6912  138.8738  161.1314 N.ar    1  UNL1       -0.2439
      6 C         138.3396  140.0662  160.2921 C.ar    1  UNL1        0.0983
      7 C         137.9256  141.3498  160.9488 C.ar    1  UNL1        0.0207
      8 C         137.8633  141.4409  162.4447 C.ar    1  UNL1        0.0031
      9 C         138.2149  140.2485  163.2840 C.ar    1  UNL1        0.0174
     10 C         138.1526  140.3395  164.7799 C.ar    1  UNL1       -0.0027
     11 C         138.4019  139.9752  158.7962 C.ar    1  UNL1        0.0930
     12 C         137.7448  140.9133  157.8276 C.ar    1  UNL1        0.0424
     13 C         138.0690  140.4479  156.4390 C.ar    1  UNL1        0.1215
     14 N         138.9266  139.2221  156.5494 N.ar    1  UNL1       -0.1710
     15 N         139.1323  138.9300  158.0062 N.ar    1  UNL1       -0.2742
     16 H         139.6550  138.1834  158.3785 H       1  UNL1        0.1890
     17 C         138.4419  139.2382  167.1152 C.3     1  UNL1        0.0437
     18 C         139.5716  139.8664  167.8760 C.3     1  UNL1        0.0768
     19 C         140.2640  142.8184  166.6695 C.3     1  UNL1        0.0173
     20 C         141.1511  141.6105  166.6076 C.3     1  UNL1        0.0576
     21 C         142.5122  141.5473  165.9804 C.3     1  UNL1        0.0174
     22 C         143.0352  140.1513  166.1473 C.3     1  UNL1        0.0187
     23 C         141.9972  139.3517  166.8777 C.3     1  UNL1        0.0721
     24 N         140.8329  140.2536  167.1622 N.3     1  UNL1       -0.2737
@<TRIPOS>BOND
     1    20    19    1
     2    20    21    1
     3    21    22    1
     4    22    23    1
     5    23    24    1
     6    24    18    1
     7    18    17    1
     8    17     1    1
     9     1     2   ar
    10     2     3   ar
    11     3     4   ar
    12     4     5   ar
    13     5     6   ar
    14     6    11    1
    15    11    12   ar
    16    12    13   ar
    17    13    14   ar
    18    14    15   ar
    19     6     7   ar
    20     7     8   ar
    21     8     9   ar
    22     9    10   ar
    23    24    20    1
    24    10     1   ar
    25     9     4   ar
    26    15    11   ar
    27    15    16    1
@<TRIPOS>MOLECULE
*****
 24 27 0 0 0
SMALL
GASTEIGER

@<TRIPOS>ATOM
      1 C         138.5588  139.5340  163.3871 C.ar    1  UNL1       -0.0207
      2 C         138.4487  138.4406  164.4079 C.ar    1  UNL1       -0.0027
      3 C         138.8584  138.6963  165.8280 C.ar    1  UNL1        0.0188
      4 C         139.3782  140.0455  166.2273 C.ar    1  UNL1        0.0813
      5 N         139.7879  140.3012  167.6475 N.ar    1  UNL1       -0.2439
      6 C         140.3078  141.6505  168.0467 C.ar    1  UNL1        0.0983
      7 C         140.4179  142.7439  167.0258 C.ar    1  UNL1        0.0207
      8 C         140.0082  142.4882  165.6057 C.ar    1  UNL1        0.0031
      9 C         139.4884  141.1390  165.2064 C.ar    1  UNL1        0.0174
     10 C         139.0787  140.8832  163.7863 C.ar    1  UNL1       -0.0027
     11 C         140.7175  141.9062  169.4668 C.ar    1  UNL1        0.0930
     12 C         142.0815  142.3255  169.9291 C.ar    1  UNL1        0.0424
     13 C         142.0422  142.4660  171.4219 C.ar    1  UNL1        0.1215
     14 N         140.6537  142.1336  171.8823 N.ar    1  UNL1       -0.1710
     15 N         139.8351  141.7876  170.6740 N.ar    1  UNL1       -0.2742
     16 H         138.8854  141.5283  170.6733 H       1  UNL1        0.1890
     17 C         138.1491  139.2783  161.9669 C.3     1  UNL1        0.0437
     18 C         138.8115  138.1864  161.1803 C.3     1  UNL1        0.0768
     19 C         141.4160  137.3637  162.9661 C.3     1  UNL1        0.0173
     20 C         141.4430  137.9479  161.5848 C.3     1  UNL1        0.0576
     21 C         142.6718  138.2566  160.7819 C.3     1  UNL1        0.0174
     22 C         142.2341  138.8255  159.4648 C.3     1  UNL1        0.0187
     23 C         140.7347  138.8685  159.4537 C.3     1  UNL1        0.0721
     24 N         140.2459  138.3261  160.7640 N.3     1  UNL1       -0.2737
@<TRIPOS>BOND
     1    20    19    1
     2    20    21    1
     3    21    22    1
     4    22    23    1
     5    23    24    1
     6    24    18    1
     7    18    17    1
     8    17     1    1
     9     1     2   ar
    10     2     3   ar
    11     3     4   ar
    12     4     5   ar
    13     5     6   ar
    14     6    11    1
    15    11    12   ar
    16    12    13   ar
    17    13    14   ar
    18    14    15   ar
    19     6     7   ar
    20     7     8   ar
    21     8     9   ar
    22     9    10   ar
    23    24    20    1
    24    10     1   ar
    25     9     4   ar
    26    15    11   ar
    27    15    16    1
