@<TRIPOS>MOLECULE
*****
 33 35 0 0 0
SMALL
GASTEIGER

@<TRIPOS>ATOM
      1 C         141.2360  136.9835  164.4212 C.3     1  UNL1        0.0236
      2 C         140.8284  138.0413  163.4389 C.3     1  UNL1        0.0998
      3 C         140.4347  137.6571  162.0433 C.3     1  UNL1        0.1271
      4 N         140.0271  138.7149  161.0610 N.ar    1  UNL1       -0.3092
      5 C         139.5914  138.6392  159.6277 C.ar    1  UNL1        0.1785
      6 N         139.3082  140.0344  159.1551 N.ar    1  UNL1       -0.2196
      7 C         139.5688  140.9723  160.2963 C.ar    1  UNL1        0.1494
      8 C         140.0131  140.1568  161.4743 C.ar    1  UNL1        0.0809
      9 C         140.4068  140.5409  162.8698 C.3     1  UNL1        0.1405
     10 N         140.8144  139.4831  163.8521 N.am    1  UNL1       -0.2580
     11 C         141.2081  139.8673  165.2476 C.2     1  UNL1        0.3080
     12 O         141.6157  138.8095  166.2299 O.2     1  UNL1       -0.2522
     13 N         141.1942  141.3091  165.6608 N.am    1  UNL1       -0.2681
     14 H         140.9266  142.0034  165.0161 H       1  UNL1        0.1564
     15 C         141.5879  141.6933  167.0564 C.ar    1  UNL1        0.0524
     16 C         142.7574  141.0252  167.7164 C.ar    1  UNL1        0.0171
     17 C         143.1511  141.4093  169.1119 C.ar    1  UNL1        0.0316
     18 C         142.3753  142.4616  169.8473 C.ar    1  UNL1        0.1497
     19 F         142.7691  142.8457  171.2428 F       1  UNL1       -0.2035
     20 C         141.2058  143.1298  169.1873 C.ar    1  UNL1        0.0970
     21 C         140.8121  142.7456  167.7917 C.ar    1  UNL1        0.0273
     22 C         140.4300  144.1820  169.9225 C.1     1  UNL1        0.1027
     23 N         139.6541  145.2343  170.6579 N.1     1  UNL1       -0.1908
     24 C         139.4126  142.4638  160.2650 C.2     1  UNL1        0.2650
     25 O         138.0675  143.0822  160.5063 O.2     1  UNL1       -0.2684
     26 N         140.6015  143.3369  159.9925 N.am    1  UNL1       -0.2939
     27 H         141.4843  142.9311  159.8341 H       1  UNL1        0.1500
     28 C         140.4452  144.8284  159.9612 C.3     1  UNL1        0.1676
     29 C         140.2597  145.5358  158.6516 C.3     1  UNL1        0.0303
     30 C         140.4743  145.6126  161.2396 C.3     1  UNL1        0.4135
     31 F         140.5035  146.3968  162.5179 F       1  UNL1       -0.1682
     32 F         141.4700  144.6463  161.8097 F       1  UNL1       -0.1682
     33 F         139.4787  146.5789  160.6695 F       1  UNL1       -0.1682
@<TRIPOS>BOND
     1     2     1    1
     2     2     3    1
     3     3     4    1
     4     4     5   ar
     5     5     6   ar
     6     6     7   ar
     7     7    24    1
     8    24    25    2
     9    24    26   am
    10    26    28    1
    11    28    29    1
    12    28    30    1
    13    30    31    1
    14    30    32    1
    15    30    33    1
    16     7     8   ar
    17     8     9    1
    18     9    10    1
    19    10    11   am
    20    11    12    2
    21    11    13   am
    22    13    15    1
    23    15    16   ar
    24    16    17   ar
    25    17    18   ar
    26    18    19    1
    27    18    20   ar
    28    20    22    1
    29    22    23    3
    30    20    21   ar
    31    10     2    1
    32    21    15   ar
    33     8     4   ar
    34    26    27    1
    35    13    14    1
@<TRIPOS>MOLECULE
*****
 33 35 0 0 0
SMALL
GASTEIGER

@<TRIPOS>ATOM
      1 C         138.4227  137.5924  165.4504 C.3     1  UNL1        0.0236
      2 C         139.0336  138.2621  164.2552 C.3     1  UNL1        0.0998
      3 C         138.6917  137.7883  162.8737 C.3     1  UNL1        0.1271
      4 N         139.3025  138.4580  161.6786 N.ar    1  UNL1       -0.3092
      5 C         139.1558  138.2122  160.2061 C.ar    1  UNL1        0.1785
      6 N         140.0178  139.2039  159.4826 N.ar    1  UNL1       -0.2196
      7 C         140.6973  140.0625  160.5078 C.ar    1  UNL1        0.1494
      8 C         140.2552  139.6016  161.8650 C.ar    1  UNL1        0.0809
      9 C         140.5970  140.0753  163.2465 C.3     1  UNL1        0.1405
     10 N         139.9862  139.4056  164.4416 N.am    1  UNL1       -0.2580
     11 C         140.3281  139.8794  165.8232 C.2     1  UNL1        0.3080
     12 O         139.7172  139.2097  167.0183 O.2     1  UNL1       -0.2522
     13 N         141.2807  141.0229  166.0096 N.am    1  UNL1       -0.2681
     14 H         141.6816  141.4625  165.2252 H       1  UNL1        0.1564
     15 C         141.6226  141.4967  167.3912 C.ar    1  UNL1        0.0524
     16 C         142.7290  140.8355  168.1584 C.ar    1  UNL1        0.0171
     17 C         143.0709  141.3093  169.5400 C.ar    1  UNL1        0.0316
     18 C         142.3064  142.4443  170.1542 C.ar    1  UNL1        0.1497
     19 F         142.6484  142.9181  171.5358 F       1  UNL1       -0.2035
     20 C         141.2001  143.1056  169.3870 C.ar    1  UNL1        0.0970
     21 C         140.8582  142.6317  168.0054 C.ar    1  UNL1        0.0273
     22 C         140.4356  144.2406  170.0012 C.1     1  UNL1        0.1027
     23 N         139.6711  145.3757  170.6153 N.1     1  UNL1       -0.1908
     24 C         141.6513  141.1850  160.2253 C.2     1  UNL1        0.2650
     25 O         141.3626  142.1538  159.1171 O.2     1  UNL1       -0.2684
     26 N         142.8941  141.3388  161.0511 N.am    1  UNL1       -0.2939
     27 H         143.0837  140.7029  161.7784 H       1  UNL1        0.1500
     28 C         143.8481  142.4613  160.7686 C.3     1  UNL1        0.1676
     29 C         144.6317  142.4757  159.4896 C.3     1  UNL1        0.0303
     30 C         144.0186  143.5695  161.7650 C.3     1  UNL1        0.4135
     31 F         144.1891  144.6777  162.7614 F       1  UNL1       -0.1682
     32 F         142.8367  144.2810  161.1758 F       1  UNL1       -0.1682
     33 F         145.2004  142.8580  162.3541 F       1  UNL1       -0.1682
@<TRIPOS>BOND
     1     2     1    1
     2     2     3    1
     3     3     4    1
     4     4     5   ar
     5     5     6   ar
     6     6     7   ar
     7     7    24    1
     8    24    25    2
     9    24    26   am
    10    26    28    1
    11    28    29    1
    12    28    30    1
    13    30    31    1
    14    30    32    1
    15    30    33    1
    16     7     8   ar
    17     8     9    1
    18     9    10    1
    19    10    11   am
    20    11    12    2
    21    11    13   am
    22    13    15    1
    23    15    16   ar
    24    16    17   ar
    25    17    18   ar
    26    18    19    1
    27    18    20   ar
    28    20    22    1
    29    22    23    3
    30    20    21   ar
    31    10     2    1
    32    21    15   ar
    33     8     4   ar
    34    26    27    1
    35    13    14    1
@<TRIPOS>MOLECULE
*****
 33 35 0 0 0
SMALL
GASTEIGER

@<TRIPOS>ATOM
      1 C         139.0141  137.6172  164.9608 C.3     1  UNL1        0.0236
      2 C         139.2444  138.5236  163.7879 C.3     1  UNL1        0.0998
      3 C         138.7762  138.1164  162.4222 C.3     1  UNL1        0.1271
      4 N         139.0064  139.0228  161.2494 N.ar    1  UNL1       -0.3092
      5 C         138.6600  138.8910  159.7959 C.ar    1  UNL1        0.1785
      6 N         139.1443  140.1230  159.0905 N.ar    1  UNL1       -0.2196
      7 C         139.7900  141.0161  160.1079 C.ar    1  UNL1        0.1494
      8 C         139.7048  140.3362  161.4422 C.ar    1  UNL1        0.0809
      9 C         140.1730  140.7433  162.8079 C.3     1  UNL1        0.1405
     10 N         139.9427  139.8369  163.9807 N.am    1  UNL1       -0.2580
     11 C         140.4109  140.2441  165.3465 C.2     1  UNL1        0.3080
     12 O         140.1806  139.3378  166.5193 O.2     1  UNL1       -0.2522
     13 N         141.1093  141.5574  165.5393 N.am    1  UNL1       -0.2681
     14 H         141.2604  142.1523  164.7695 H       1  UNL1        0.1564
     15 C         141.5775  141.9646  166.9050 C.ar    1  UNL1        0.0524
     16 C         143.0424  141.9618  167.2273 C.ar    1  UNL1        0.0171
     17 C         143.5106  142.3689  168.5930 C.ar    1  UNL1        0.0316
     18 C         142.5139  142.7789  169.6363 C.ar    1  UNL1        0.1497
     19 F         142.9822  143.1860  171.0019 F       1  UNL1       -0.2035
     20 C         141.0490  142.7817  169.3140 C.ar    1  UNL1        0.0970
     21 C         140.5808  142.3745  167.9483 C.ar    1  UNL1        0.0273
     22 C         140.0522  143.1915  170.3572 C.1     1  UNL1        0.1027
     23 N         139.0554  143.6015  171.4004 N.1     1  UNL1       -0.1908
     24 C         140.4118  142.3543  159.8384 C.2     1  UNL1        0.2650
     25 O         141.9048  142.4974  159.8194 O.2     1  UNL1       -0.2684
     26 N         139.5406  143.5494  159.5878 N.am    1  UNL1       -0.2939
     27 H         138.5606  143.4555  159.6003 H       1  UNL1        0.1500
     28 C         140.1624  144.8875  159.3183 C.3     1  UNL1        0.1676
     29 C         140.2901  145.8918  160.4251 C.3     1  UNL1        0.0303
     30 C         140.6566  145.2214  157.9419 C.3     1  UNL1        0.4135
     31 F         141.1508  145.5554  156.5656 F       1  UNL1       -0.1682
     32 F         139.3841  144.6860  157.3551 F       1  UNL1       -0.1682
     33 F         141.9290  145.7568  158.5287 F       1  UNL1       -0.1682
@<TRIPOS>BOND
     1     2     1    1
     2     2     3    1
     3     3     4    1
     4     4     5   ar
     5     5     6   ar
     6     6     7   ar
     7     7    24    1
     8    24    25    2
     9    24    26   am
    10    26    28    1
    11    28    29    1
    12    28    30    1
    13    30    31    1
    14    30    32    1
    15    30    33    1
    16     7     8   ar
    17     8     9    1
    18     9    10    1
    19    10    11   am
    20    11    12    2
    21    11    13   am
    22    13    15    1
    23    15    16   ar
    24    16    17   ar
    25    17    18   ar
    26    18    19    1
    27    18    20   ar
    28    20    22    1
    29    22    23    3
    30    20    21   ar
    31    10     2    1
    32    21    15   ar
    33     8     4   ar
    34    26    27    1
    35    13    14    1
@<TRIPOS>MOLECULE
*****
 33 35 0 0 0
SMALL
GASTEIGER

@<TRIPOS>ATOM
      1 C         139.2363  145.2768  163.0414 C.3     1  UNL1        0.0236
      2 C         140.1449  144.8764  161.9169 C.3     1  UNL1        0.0998
      3 C         140.0484  145.5712  160.5910 C.3     1  UNL1        0.1271
      4 N         140.9569  145.1709  159.4666 N.ar    1  UNL1       -0.3092
      5 C         141.0922  145.6710  158.0589 C.ar    1  UNL1        0.1785
      6 N         142.1808  144.8849  157.3905 N.ar    1  UNL1       -0.2196
      7 C         142.7184  143.8991  158.3850 C.ar    1  UNL1        0.1494
      8 C         141.9620  144.0758  159.6681 C.ar    1  UNL1        0.0809
      9 C         142.0585  143.3810  160.9940 C.3     1  UNL1        0.1405
     10 N         141.1499  143.7814  162.1184 N.am    1  UNL1       -0.2580
     11 C         141.2465  143.0866  163.4443 C.2     1  UNL1        0.3080
     12 O         140.3380  143.4869  164.5687 O.2     1  UNL1       -0.2522
     13 N         142.2515  141.9915  163.6458 N.am    1  UNL1       -0.2681
     14 H         142.8478  141.7288  162.9078 H       1  UNL1        0.1564
     15 C         142.3481  141.2967  164.9717 C.ar    1  UNL1        0.0524
     16 C         142.0607  139.8279  165.0714 C.ar    1  UNL1        0.0171
     17 C         142.1573  139.1331  166.3972 C.ar    1  UNL1        0.0316
     18 C         142.5412  139.9070  167.6234 C.ar    1  UNL1        0.1497
     19 F         142.6378  139.2122  168.9492 F       1  UNL1       -0.2035
     20 C         142.8286  141.3759  167.5238 C.ar    1  UNL1        0.0970
     21 C         142.7320  142.0707  166.1978 C.ar    1  UNL1        0.0273
     22 C         143.2125  142.1499  168.7499 C.1     1  UNL1        0.1027
     23 N         143.5965  142.9239  169.9761 N.1     1  UNL1       -0.1908
     24 C         143.8192  142.9101  158.1394 C.2     1  UNL1        0.2650
     25 O         144.0527  141.7913  159.1108 O.2     1  UNL1       -0.2684
     26 N         144.6864  143.0400  156.9224 N.am    1  UNL1       -0.2939
     27 H         144.5332  143.7743  156.2848 H       1  UNL1        0.1500
     28 C         145.7871  142.0510  156.6769 C.3     1  UNL1        0.1676
     29 C         145.4643  140.6862  156.1449 C.3     1  UNL1        0.0303
     30 C         147.2108  142.4268  156.9634 C.3     1  UNL1        0.4135
     31 F         148.6345  142.8025  157.2498 F       1  UNL1       -0.1682
     32 F         146.7878  143.0353  158.2676 F       1  UNL1       -0.1682
     33 F         147.6338  141.8183  155.6593 F       1  UNL1       -0.1682
@<TRIPOS>BOND
     1     2     1    1
     2     2     3    1
     3     3     4    1
     4     4     5   ar
     5     5     6   ar
     6     6     7   ar
     7     7    24    1
     8    24    25    2
     9    24    26   am
    10    26    28    1
    11    28    29    1
    12    28    30    1
    13    30    31    1
    14    30    32    1
    15    30    33    1
    16     7     8   ar
    17     8     9    1
    18     9    10    1
    19    10    11   am
    20    11    12    2
    21    11    13   am
    22    13    15    1
    23    15    16   ar
    24    16    17   ar
    25    17    18   ar
    26    18    19    1
    27    18    20   ar
    28    20    22    1
    29    22    23    3
    30    20    21   ar
    31    10     2    1
    32    21    15   ar
    33     8     4   ar
    34    26    27    1
    35    13    14    1
@<TRIPOS>MOLECULE
*****
 33 35 0 0 0
SMALL
GASTEIGER

@<TRIPOS>ATOM
      1 C         145.0615  140.9340  156.6249 C.3     1  UNL1        0.0236
      2 C         144.3368  140.9319  157.9382 C.3     1  UNL1        0.0998
      3 C         144.4691  142.1003  158.8697 C.3     1  UNL1        0.1271
      4 N         143.7444  142.0982  160.1830 N.ar    1  UNL1       -0.3092
      5 C         143.6839  143.1002  161.2975 C.ar    1  UNL1        0.1785
      6 N         142.7896  142.5491  162.3682 N.ar    1  UNL1       -0.2196
      7 C         142.2973  141.2065  161.9154 C.ar    1  UNL1        0.1494
      8 C         142.8874  140.9278  160.5649 C.ar    1  UNL1        0.0809
      9 C         142.7552  139.7595  159.6334 C.3     1  UNL1        0.1405
     10 N         143.4799  139.7616  158.3201 N.am    1  UNL1       -0.2580
     11 C         143.3476  138.5932  157.3887 C.2     1  UNL1        0.3080
     12 O         144.0723  138.5953  156.0754 O.2     1  UNL1       -0.2522
     13 N         142.4907  137.4229  157.7706 N.am    1  UNL1       -0.2681
     14 H         142.0151  137.4215  158.6326 H       1  UNL1        0.1564
     15 C         142.3585  136.2545  156.8392 C.ar    1  UNL1        0.0524
     16 C         141.2384  136.2132  155.8423 C.ar    1  UNL1        0.0171
     17 C         141.1061  135.0448  154.9109 C.ar    1  UNL1        0.0316
     18 C         142.0938  133.9178  154.9763 C.ar    1  UNL1        0.1497
     19 F         141.9615  132.7495  154.0449 F       1  UNL1       -0.2035
     20 C         143.2139  133.9592  155.9732 C.ar    1  UNL1        0.0970
     21 C         143.3461  135.1276  156.9046 C.ar    1  UNL1        0.0273
     22 C         144.2016  132.8323  156.0387 C.1     1  UNL1        0.1027
     23 N         145.1895  131.7054  156.1042 N.1     1  UNL1       -0.1908
     24 C         141.3766  140.3015  162.6791 C.2     1  UNL1        0.2650
     25 O         140.2684  140.8834  163.5058 O.2     1  UNL1       -0.2684
     26 N         141.5641  138.8146  162.6163 N.am    1  UNL1       -0.2939
     27 H         142.2914  138.4326  162.0737 H       1  UNL1        0.1500
     28 C         140.6434  137.9096  163.3800 C.3     1  UNL1        0.1676
     29 C         141.1150  137.2528  164.6433 C.3     1  UNL1        0.0303
     30 C         139.2509  137.6615  162.8804 C.3     1  UNL1        0.4135
     31 F         137.8584  137.4134  162.3809 F       1  UNL1       -0.1682
     32 F         139.7619  137.6325  161.4704 F       1  UNL1       -0.1682
     33 F         138.7399  137.6906  164.2904 F       1  UNL1       -0.1682
@<TRIPOS>BOND
     1     2     1    1
     2     2     3    1
     3     3     4    1
     4     4     5   ar
     5     5     6   ar
     6     6     7   ar
     7     7    24    1
     8    24    25    2
     9    24    26   am
    10    26    28    1
    11    28    29    1
    12    28    30    1
    13    30    31    1
    14    30    32    1
    15    30    33    1
    16     7     8   ar
    17     8     9    1
    18     9    10    1
    19    10    11   am
    20    11    12    2
    21    11    13   am
    22    13    15    1
    23    15    16   ar
    24    16    17   ar
    25    17    18   ar
    26    18    19    1
    27    18    20   ar
    28    20    22    1
    29    22    23    3
    30    20    21   ar
    31    10     2    1
    32    21    15   ar
    33     8     4   ar
    34    26    27    1
    35    13    14    1
@<TRIPOS>MOLECULE
*****
 33 35 0 0 0
SMALL
GASTEIGER

@<TRIPOS>ATOM
      1 C         144.9879  143.9197  164.9495 C.3     1  UNL1        0.0236
      2 C         144.1618  143.2173  163.9129 C.3     1  UNL1        0.0998
      3 C         144.4384  143.4409  162.4557 C.3     1  UNL1        0.1271
      4 N         143.6124  142.7386  161.4191 N.ar    1  UNL1       -0.3092
      5 C         143.6515  142.7618  159.9198 C.ar    1  UNL1        0.1785
      6 N         142.5730  141.8503  159.4139 N.ar    1  UNL1       -0.2196
      7 C         141.8674  141.2637  160.6005 C.ar    1  UNL1        0.1494
      8 C         142.5098  141.8127  161.8399 C.ar    1  UNL1        0.0809
      9 C         142.2332  141.5891  163.2971 C.3     1  UNL1        0.1405
     10 N         143.0593  142.2914  164.3336 N.am    1  UNL1       -0.2580
     11 C         142.7826  142.0678  165.7909 C.2     1  UNL1        0.3080
     12 O         143.6086  142.7702  166.8274 O.2     1  UNL1       -0.2522
     13 N         141.6801  141.1420  166.2115 N.am    1  UNL1       -0.2681
     14 H         141.1379  140.6810  165.5312 H       1  UNL1        0.1564
     15 C         141.4034  140.9184  167.6688 C.ar    1  UNL1        0.0524
     16 C         141.8820  139.6648  168.3392 C.ar    1  UNL1        0.0171
     17 C         141.6054  139.4411  169.7964 C.ar    1  UNL1        0.0316
     18 C         140.8502  140.4710  170.5832 C.ar    1  UNL1        0.1497
     19 F         140.5736  140.2474  172.0404 F       1  UNL1       -0.2035
     20 C         140.3717  141.7246  169.9128 C.ar    1  UNL1        0.0970
     21 C         140.6483  141.9482  168.4555 C.ar    1  UNL1        0.0273
     22 C         139.6165  142.7546  170.6994 C.1     1  UNL1        0.1027
     23 N         138.8615  143.7846  171.4861 N.1     1  UNL1       -0.1908
     24 C         140.7207  140.2977  160.5557 C.2     1  UNL1        0.2650
     25 O         140.6952  139.2115  159.5215 O.2     1  UNL1       -0.2684
     26 N         139.5996  140.4179  161.5449 N.am    1  UNL1       -0.2939
     27 H         139.6164  141.1308  162.2237 H       1  UNL1        0.1500
     28 C         138.4530  139.4519  161.5000 C.3     1  UNL1        0.1676
     29 C         137.3227  139.6736  160.5392 C.3     1  UNL1        0.0303
     30 C         138.4366  138.2640  162.4160 C.3     1  UNL1        0.4135
     31 F         138.4202  137.0763  163.3319 F       1  UNL1       -0.1682
     32 F         137.2917  137.6822  161.6409 F       1  UNL1       -0.1682
     33 F         139.5815  138.8459  163.1910 F       1  UNL1       -0.1682
@<TRIPOS>BOND
     1     2     1    1
     2     2     3    1
     3     3     4    1
     4     4     5   ar
     5     5     6   ar
     6     6     7   ar
     7     7    24    1
     8    24    25    2
     9    24    26   am
    10    26    28    1
    11    28    29    1
    12    28    30    1
    13    30    31    1
    14    30    32    1
    15    30    33    1
    16     7     8   ar
    17     8     9    1
    18     9    10    1
    19    10    11   am
    20    11    12    2
    21    11    13   am
    22    13    15    1
    23    15    16   ar
    24    16    17   ar
    25    17    18   ar
    26    18    19    1
    27    18    20   ar
    28    20    22    1
    29    22    23    3
    30    20    21   ar
    31    10     2    1
    32    21    15   ar
    33     8     4   ar
    34    26    27    1
    35    13    14    1
@<TRIPOS>MOLECULE
*****
 33 35 0 0 0
SMALL
GASTEIGER

@<TRIPOS>ATOM
      1 C         140.2420  145.7732  162.4076 C.3     1  UNL1        0.0236
      2 C         140.8217  144.7687  161.4562 C.3     1  UNL1        0.0998
      3 C         141.1580  145.1732  160.0514 C.3     1  UNL1        0.1271
      4 N         141.7377  144.1687  159.1002 N.ar    1  UNL1       -0.3092
      5 C         142.1655  144.2746  157.6664 C.ar    1  UNL1        0.1785
      6 N         142.6732  142.9311  157.2337 N.ar    1  UNL1       -0.2196
      7 C         142.5593  141.9949  158.4001 C.ar    1  UNL1        0.1494
      8 C         141.9811  142.7597  159.5537 C.ar    1  UNL1        0.0809
      9 C         141.6448  142.3553  160.9584 C.3     1  UNL1        0.1405
     10 N         141.0651  143.3598  161.9097 N.am    1  UNL1       -0.2580
     11 C         140.7288  142.9553  163.3145 C.2     1  UNL1        0.3080
     12 O         140.1491  143.9598  164.2657 O.2     1  UNL1       -0.2522
     13 N         140.9721  141.5464  163.7679 N.am    1  UNL1       -0.2681
     14 H         141.3526  140.8871  163.1435 H       1  UNL1        0.1564
     15 C         140.6358  141.1419  165.1727 C.ar    1  UNL1        0.0524
     16 C         141.4092  141.7142  166.3234 C.ar    1  UNL1        0.0171
     17 C         141.0730  141.3098  167.7282 C.ar    1  UNL1        0.0316
     18 C         139.9633  140.3329  167.9822 C.ar    1  UNL1        0.1497
     19 F         139.6271  139.9285  169.3869 F       1  UNL1       -0.2035
     20 C         139.1899  139.7606  166.8314 C.ar    1  UNL1        0.0970
     21 C         139.5263  140.1651  165.4266 C.ar    1  UNL1        0.0273
     22 C         138.0803  138.7838  167.0853 C.1     1  UNL1        0.1027
     23 N         136.9706  137.8070  167.3391 N.1     1  UNL1       -0.1908
     24 C         142.9542  140.5478  158.4110 C.2     1  UNL1        0.2650
     25 O         144.4044  140.1659  158.3775 O.2     1  UNL1       -0.2684
     26 N         141.8989  139.4827  158.4554 N.am    1  UNL1       -0.2939
     27 H         140.9471  139.7333  158.4774 H       1  UNL1        0.1500
     28 C         142.2939  138.0357  158.4663 C.3     1  UNL1        0.1676
     29 C         142.8852  137.4290  159.7041 C.3     1  UNL1        0.0303
     30 C         142.0976  137.1954  157.2393 C.3     1  UNL1        0.4135
     31 F         141.9013  136.3550  156.0125 F       1  UNL1       -0.1682
     32 F         141.1752  138.2350  156.6748 F       1  UNL1       -0.1682
     33 F         143.0199  136.1558  157.8038 F       1  UNL1       -0.1682
@<TRIPOS>BOND
     1     2     1    1
     2     2     3    1
     3     3     4    1
     4     4     5   ar
     5     5     6   ar
     6     6     7   ar
     7     7    24    1
     8    24    25    2
     9    24    26   am
    10    26    28    1
    11    28    29    1
    12    28    30    1
    13    30    31    1
    14    30    32    1
    15    30    33    1
    16     7     8   ar
    17     8     9    1
    18     9    10    1
    19    10    11   am
    20    11    12    2
    21    11    13   am
    22    13    15    1
    23    15    16   ar
    24    16    17   ar
    25    17    18   ar
    26    18    19    1
    27    18    20   ar
    28    20    22    1
    29    22    23    3
    30    20    21   ar
    31    10     2    1
    32    21    15   ar
    33     8     4   ar
    34    26    27    1
    35    13    14    1
@<TRIPOS>MOLECULE
*****
 33 35 0 0 0
SMALL
GASTEIGER

@<TRIPOS>ATOM
      1 C         140.2704  145.6695  158.5733 C.3     1  UNL1        0.0236
      2 C         140.3526  144.8483  159.8259 C.3     1  UNL1        0.0998
      3 C         140.9455  145.4376  161.0715 C.3     1  UNL1        0.1271
      4 N         141.0277  144.6164  162.3240 N.ar    1  UNL1       -0.3092
      5 C         141.5562  144.9249  163.6935 C.ar    1  UNL1        0.1785
      6 N         141.3723  143.7051  164.5469 N.ar    1  UNL1       -0.2196
      7 C         140.7300  142.6428  163.7049 C.ar    1  UNL1        0.1494
      8 C         140.5171  143.2060  162.3310 C.ar    1  UNL1        0.0809
      9 C         139.9243  142.6168  161.0855 C.3     1  UNL1        0.1405
     10 N         139.8420  143.4380  159.8330 N.am    1  UNL1       -0.2580
     11 C         139.2491  142.8487  158.5874 C.2     1  UNL1        0.3080
     12 O         139.1669  143.6699  157.3349 O.2     1  UNL1       -0.2522
     13 N         138.7385  141.4384  158.5944 N.am    1  UNL1       -0.2681
     14 H         138.7925  140.8994  159.4165 H       1  UNL1        0.1564
     15 C         138.1456  140.8491  157.3489 C.ar    1  UNL1        0.0524
     16 C         138.9698  139.9447  156.4813 C.ar    1  UNL1        0.0171
     17 C         138.3770  139.3554  155.2358 C.ar    1  UNL1        0.0316
     18 C         136.9600  139.6705  154.8579 C.ar    1  UNL1        0.1497
     19 F         136.3672  139.0812  153.6124 F       1  UNL1       -0.2035
     20 C         136.1358  140.5749  155.7255 C.ar    1  UNL1        0.0970
     21 C         136.7287  141.1641  156.9710 C.ar    1  UNL1        0.0273
     22 C         134.7188  140.8900  155.3477 C.1     1  UNL1        0.1027
     23 N         133.3018  141.2050  154.9700 N.1     1  UNL1       -0.1908
     24 C         140.3649  141.2600  164.1573 C.2     1  UNL1        0.2650
     25 O         141.4422  140.2636  164.4679 O.2     1  UNL1       -0.2684
     26 N         138.9224  140.8737  164.2990 N.am    1  UNL1       -0.2939
     27 H         138.2153  141.5277  164.0951 H       1  UNL1        0.1500
     28 C         138.5574  139.4910  164.7514 C.3     1  UNL1        0.1676
     29 C         138.1375  139.2529  166.1716 C.3     1  UNL1        0.0303
     30 C         138.6121  138.3462  163.7836 C.3     1  UNL1        0.4135
     31 F         138.6668  137.2015  162.8158 F       1  UNL1       -0.1682
     32 F         139.3230  137.5134  164.8089 F       1  UNL1       -0.1682
     33 F         137.9013  139.1790  162.7583 F       1  UNL1       -0.1682
@<TRIPOS>BOND
     1     2     1    1
     2     2     3    1
     3     3     4    1
     4     4     5   ar
     5     5     6   ar
     6     6     7   ar
     7     7    24    1
     8    24    25    2
     9    24    26   am
    10    26    28    1
    11    28    29    1
    12    28    30    1
    13    30    31    1
    14    30    32    1
    15    30    33    1
    16     7     8   ar
    17     8     9    1
    18     9    10    1
    19    10    11   am
    20    11    12    2
    21    11    13   am
    22    13    15    1
    23    15    16   ar
    24    16    17   ar
    25    17    18   ar
    26    18    19    1
    27    18    20   ar
    28    20    22    1
    29    22    23    3
    30    20    21   ar
    31    10     2    1
    32    21    15   ar
    33     8     4   ar
    34    26    27    1
    35    13    14    1
@<TRIPOS>MOLECULE
*****
 33 35 0 0 0
SMALL
GASTEIGER

@<TRIPOS>ATOM
      1 C         145.6428  142.1227  163.9000 C.3     1  UNL1        0.0236
      2 C         144.6586  142.1224  162.7679 C.3     1  UNL1        0.0998
      3 C         145.1382  142.2963  161.3572 C.3     1  UNL1        0.1271
      4 N         144.1540  142.2960  160.2252 N.ar    1  UNL1       -0.3092
      5 C         144.3292  142.4452  158.7429 C.ar    1  UNL1        0.1785
      6 N         142.9739  142.3632  158.1055 N.ar    1  UNL1       -0.2196
      7 C         141.9611  142.1633  159.1937 C.ar    1  UNL1        0.1494
      8 C         142.6905  142.1218  160.5038 C.ar    1  UNL1        0.0809
      9 C         142.2110  141.9479  161.9144 C.3     1  UNL1        0.1405
     10 N         143.1951  141.9483  163.0464 N.am    1  UNL1       -0.2580
     11 C         142.7156  141.7744  164.4571 C.2     1  UNL1        0.3080
     12 O         143.6997  141.7747  165.5891 O.2     1  UNL1       -0.2522
     13 N         141.2521  141.6002  164.7357 N.am    1  UNL1       -0.2681
     14 H         140.6062  141.6000  163.9926 H       1  UNL1        0.1564
     15 C         140.7726  141.4263  166.1463 C.ar    1  UNL1        0.0524
     16 C         140.2986  140.0833  166.6171 C.ar    1  UNL1        0.0171
     17 C         139.8190  139.9093  168.0277 C.ar    1  UNL1        0.0316
     18 C         139.8135  141.0784  168.9675 C.ar    1  UNL1        0.1497
     19 F         139.3340  140.9044  170.3781 F       1  UNL1       -0.2035
     20 C         140.2875  142.4214  168.4968 C.ar    1  UNL1        0.0970
     21 C         140.7670  142.5953  167.0861 C.ar    1  UNL1        0.0273
     22 C         140.2820  143.5905  169.4365 C.1     1  UNL1        0.1027
     23 N         140.2766  144.7596  170.3762 N.1     1  UNL1       -0.1908
     24 C         140.4791  142.0286  159.0050 C.2     1  UNL1        0.2650
     25 O         139.5792  143.1975  159.2766 O.2     1  UNL1       -0.2684
     26 N         139.8971  140.7251  158.5446 N.am    1  UNL1       -0.2939
     27 H         140.4877  139.9579  158.3663 H       1  UNL1        0.1500
     28 C         138.4152  140.5904  158.3559 C.3     1  UNL1        0.1676
     29 C         137.5407  140.2285  159.5197 C.3     1  UNL1        0.0303
     30 C         137.8075  140.8178  157.0034 C.3     1  UNL1        0.4135
     31 F         137.1999  141.0450  155.6509 F       1  UNL1       -0.1682
     32 F         137.1110  142.0410  157.5219 F       1  UNL1       -0.1682
     33 F         138.5040  139.5946  156.4850 F       1  UNL1       -0.1682
@<TRIPOS>BOND
     1     2     1    1
     2     2     3    1
     3     3     4    1
     4     4     5   ar
     5     5     6   ar
     6     6     7   ar
     7     7    24    1
     8    24    25    2
     9    24    26   am
    10    26    28    1
    11    28    29    1
    12    28    30    1
    13    30    31    1
    14    30    32    1
    15    30    33    1
    16     7     8   ar
    17     8     9    1
    18     9    10    1
    19    10    11   am
    20    11    12    2
    21    11    13   am
    22    13    15    1
    23    15    16   ar
    24    16    17   ar
    25    17    18   ar
    26    18    19    1
    27    18    20   ar
    28    20    22    1
    29    22    23    3
    30    20    21   ar
    31    10     2    1
    32    21    15   ar
    33     8     4   ar
    34    26    27    1
    35    13    14    1
