@<TRIPOS>MOLECULE
*****
 35 37 0 0 0
SMALL
GASTEIGER

@<TRIPOS>ATOM
      1 N         141.3053  138.2173  157.7670 N.3     1  UNL1       -0.2705
      2 C         139.8655  138.3059  158.1783 C.3     1  UNL1        0.0739
      3 C         139.5094  138.6797  159.5866 C.3     1  UNL1        0.0394
      4 C         140.5931  138.9650  160.5837 C.3     1  UNL1        0.1017
      5 C         142.0329  138.8764  160.1725 C.3     1  UNL1        0.1490
      6 C         142.3890  138.5026  158.7641 C.3     1  UNL1        0.1037
      7 N         140.2369  139.3388  161.9921 N.am    1  UNL1       -0.2999
      8 C         140.3203  138.3138  163.0840 C.2     1  UNL1        0.2488
      9 O         140.7598  136.9150  162.7677 O.2     1  UNL1       -0.2700
     10 H         139.9485  140.2569  162.1997 H       1  UNL1        0.1498
     11 C         139.9642  138.6876  164.4923 C.ar    1  UNL1        0.0882
     12 C         138.7497  138.0932  165.1419 C.ar    1  UNL1        0.0202
     13 C         138.3936  138.4671  166.5502 C.ar    1  UNL1        0.0709
     14 CL        137.1792  137.8726  167.1996 Cl      1  UNL1       -0.0810
     15 C         139.2518  139.4353  167.3090 C.ar    1  UNL1        0.0553
     16 N         138.8957  139.8092  168.7173 N.pl3   1  UNL1       -0.3563
     17 C         140.4662  140.0298  166.6596 C.ar    1  UNL1        0.0520
     18 C         140.8224  139.6559  165.2512 C.ar    1  UNL1        0.1443
     19 H         138.0986  139.4191  169.1436 H       1  UNL1        0.1424
     20 H         139.4590  140.4447  169.2154 H       1  UNL1        0.1424
     21 O         142.0368  140.2503  164.6017 O.3     1  UNL1       -0.4712
     22 C         143.3991  139.7110  164.9231 C.3     1  UNL1        0.2525
     23 O         143.1166  139.1617  161.1696 O.3     1  UNL1       -0.3505
     24 C         144.0107  138.0542  161.6429 C.3     1  UNL1        0.1741
     25 C         141.6614  137.8435  156.3587 C.3     1  UNL1        0.0722
     26 N         142.7162  133.5846  155.3593 N.am    1  UNL1       -0.3055
     27 C         141.3916  134.1479  154.9376 C.3     1  UNL1        0.0910
     28 C         141.0400  135.5675  155.2707 C.3     1  UNL1        0.0229
     29 C         142.0130  136.4239  156.0256 C.3     1  UNL1        0.0194
     30 C         143.3377  135.8606  156.4473 C.3     1  UNL1        0.0229
     31 C         143.6893  134.4409  156.1142 C.3     1  UNL1        0.0910
     32 C         143.0679  132.1649  155.0262 C.2     1  UNL1        0.0613
     33 S         142.8504  131.6447  153.6363 S.2     1  UNL1       -0.0395
     34 C         144.8165  130.3932  155.7701 C.3     1  UNL1        0.0070
     35 C         143.6369  131.2654  156.0831 C.3     1  UNL1        0.0484
@<TRIPOS>BOND
     1    34    35    1
     2    35    32    1
     3    32    33    2
     4    32    26    1
     5    26    27    1
     6    27    28    1
     7    28    29    1
     8    29    25    1
     9    25     1    1
    10     1     2    1
    11     2     3    1
    12     3     4    1
    13     4     7    1
    14     7     8   am
    15     8     9    2
    16     8    11    1
    17    11    12   ar
    18    12    13   ar
    19    13    14    1
    20    13    15   ar
    21    15    16    1
    22    15    17   ar
    23    17    18   ar
    24    18    21    1
    25    21    22    1
    26     4     5    1
    27     5    23    1
    28    23    24    1
    29     5     6    1
    30    29    30    1
    31    30    31    1
    32    31    26    1
    33     6     1    1
    34    18    11   ar
    35     7    10    1
    36    16    19    1
    37    16    20    1
@<TRIPOS>MOLECULE
*****
 35 37 0 0 0
SMALL
GASTEIGER

@<TRIPOS>ATOM
      1 N         142.3506  138.2203  159.6615 N.3     1  UNL1       -0.2705
      2 C         143.3143  137.8556  160.7518 C.3     1  UNL1        0.0739
      3 C         142.8895  137.9413  162.1878 C.3     1  UNL1        0.0394
      4 C         141.5011  138.3916  162.5337 C.3     1  UNL1        0.1017
      5 C         140.5375  138.7563  161.4436 C.3     1  UNL1        0.1490
      6 C         140.9623  138.6707  160.0074 C.3     1  UNL1        0.1037
      7 N         141.0764  138.4773  163.9698 N.am    1  UNL1       -0.2999
      8 C         141.4819  139.6569  164.8028 C.2     1  UNL1        0.2488
      9 O         142.3122  140.7510  164.1997 O.2     1  UNL1       -0.2700
     10 H         140.5315  137.7592  164.3656 H       1  UNL1        0.1498
     11 C         141.0572  139.7425  166.2388 C.ar    1  UNL1        0.0882
     12 C         142.0901  139.7656  167.3264 C.ar    1  UNL1        0.0202
     13 C         141.6653  139.8512  168.7624 C.ar    1  UNL1        0.0709
     14 CL        142.6982  139.8742  169.8498 Cl      1  UNL1       -0.0810
     15 C         140.2077  139.9137  169.1109 C.ar    1  UNL1        0.0553
     16 N         139.7830  139.9992  170.5470 N.pl3   1  UNL1       -0.3563
     17 C         139.1749  139.8906  168.0235 C.ar    1  UNL1        0.0520
     18 C         139.5996  139.8050  166.5874 C.ar    1  UNL1        0.1443
     19 H         140.4609  140.0144  171.2607 H       1  UNL1        0.1424
     20 H         138.8263  140.0403  170.7757 H       1  UNL1        0.1424
     21 O         138.5667  139.7819  165.4999 O.3     1  UNL1       -0.4712
     22 C         138.2391  141.0389  164.7498 C.3     1  UNL1        0.2525
     23 O         139.1492  139.2066  161.7894 O.3     1  UNL1       -0.3505
     24 C         138.0037  138.2422  161.6999 C.3     1  UNL1        0.1741
     25 C         142.7754  138.1347  158.2255 C.3     1  UNL1        0.0722
     26 N         142.1137  134.3357  155.9061 N.am    1  UNL1       -0.3055
     27 C         141.3708  135.5833  155.5298 C.3     1  UNL1        0.0910
     28 C         141.5914  136.8496  156.3029 C.3     1  UNL1        0.0229
     29 C         142.5548  136.8684  157.4524 C.3     1  UNL1        0.0194
     30 C         143.2977  135.6208  157.8287 C.3     1  UNL1        0.0229
     31 C         143.0772  134.3545  157.0556 C.3     1  UNL1        0.0910
     32 C         141.8931  133.0694  155.1330 C.2     1  UNL1        0.0613
     33 S         142.2907  131.7500  155.7255 S.2     1  UNL1       -0.0395
     34 C         142.0658  132.6890  152.5687 C.3     1  UNL1        0.0070
     35 C         141.2750  133.1224  153.7673 C.3     1  UNL1        0.0484
@<TRIPOS>BOND
     1    34    35    1
     2    35    32    1
     3    32    33    2
     4    32    26    1
     5    26    27    1
     6    27    28    1
     7    28    29    1
     8    29    25    1
     9    25     1    1
    10     1     2    1
    11     2     3    1
    12     3     4    1
    13     4     7    1
    14     7     8   am
    15     8     9    2
    16     8    11    1
    17    11    12   ar
    18    12    13   ar
    19    13    14    1
    20    13    15   ar
    21    15    16    1
    22    15    17   ar
    23    17    18   ar
    24    18    21    1
    25    21    22    1
    26     4     5    1
    27     5    23    1
    28    23    24    1
    29     5     6    1
    30    29    30    1
    31    30    31    1
    32    31    26    1
    33     6     1    1
    34    18    11   ar
    35     7    10    1
    36    16    19    1
    37    16    20    1
@<TRIPOS>MOLECULE
*****
 35 37 0 0 0
SMALL
GASTEIGER

@<TRIPOS>ATOM
      1 N         140.4949  140.3437  160.2480 N.3     1  UNL1       -0.2705
      2 C         141.5616  141.1479  160.9304 C.3     1  UNL1        0.0739
      3 C         141.6275  141.1883  162.4284 C.3     1  UNL1        0.0394
      4 C         140.6267  140.4247  163.2440 C.3     1  UNL1        0.1017
      5 C         139.5600  139.6206  162.5617 C.3     1  UNL1        0.1490
      6 C         139.4941  139.5801  161.0637 C.3     1  UNL1        0.1037
      7 N         140.6926  140.4652  164.7421 N.am    1  UNL1       -0.2999
      8 C         139.9228  141.5067  165.4988 C.2     1  UNL1        0.2488
      9 O         139.0870  142.5077  164.7575 O.2     1  UNL1       -0.2700
     10 H         141.2412  139.8083  165.2286 H       1  UNL1        0.1498
     11 C         139.9887  141.5472  166.9968 C.ar    1  UNL1        0.0882
     12 C         140.4053  142.8075  167.6954 C.ar    1  UNL1        0.0202
     13 C         140.4713  142.8480  169.1934 C.ar    1  UNL1        0.0709
     14 CL        140.8878  144.1083  169.8919 Cl      1  UNL1       -0.0810
     15 C         140.1207  141.6282  169.9928 C.ar    1  UNL1        0.0553
     16 N         140.1867  141.6686  171.4908 N.pl3   1  UNL1       -0.3563
     17 C         139.7042  140.3678  169.2942 C.ar    1  UNL1        0.0520
     18 C         139.6382  140.3273  167.7962 C.ar    1  UNL1        0.1443
     19 H         140.4600  142.4958  171.9493 H       1  UNL1        0.1424
     20 H         139.9566  140.8680  172.0154 H       1  UNL1        0.1424
     21 O         139.2217  139.0670  167.0976 O.3     1  UNL1       -0.4712
     22 C         137.7681  138.7103  166.9974 C.3     1  UNL1        0.2525
     23 O         138.5593  138.8570  163.3774 O.3     1  UNL1       -0.3505
     24 C         138.8680  137.4597  163.8273 C.3     1  UNL1        0.1741
     25 C         140.4290  140.3032  158.7500 C.3     1  UNL1        0.0722
     26 N         141.7580  136.6166  156.5382 N.am    1  UNL1       -0.3055
     27 C         140.4494  137.2653  156.1966 C.3     1  UNL1        0.0910
     28 C         140.0064  138.4941  156.9338 C.3     1  UNL1        0.0229
     29 C         140.8720  139.0743  158.0127 C.3     1  UNL1        0.0194
     30 C         142.1806  138.4257  158.3544 C.3     1  UNL1        0.0229
     31 C         142.6236  137.1968  157.6171 C.3     1  UNL1        0.0910
     32 C         142.2011  135.3877  155.8009 C.2     1  UNL1        0.0613
     33 S         141.3699  134.8482  154.6749 S.2     1  UNL1       -0.0395
     34 C         143.4971  133.7718  157.3689 C.3     1  UNL1        0.0070
     35 C         143.4753  134.6984  156.1896 C.3     1  UNL1        0.0484
@<TRIPOS>BOND
     1    34    35    1
     2    35    32    1
     3    32    33    2
     4    32    26    1
     5    26    27    1
     6    27    28    1
     7    28    29    1
     8    29    25    1
     9    25     1    1
    10     1     2    1
    11     2     3    1
    12     3     4    1
    13     4     7    1
    14     7     8   am
    15     8     9    2
    16     8    11    1
    17    11    12   ar
    18    12    13   ar
    19    13    14    1
    20    13    15   ar
    21    15    16    1
    22    15    17   ar
    23    17    18   ar
    24    18    21    1
    25    21    22    1
    26     4     5    1
    27     5    23    1
    28    23    24    1
    29     5     6    1
    30    29    30    1
    31    30    31    1
    32    31    26    1
    33     6     1    1
    34    18    11   ar
    35     7    10    1
    36    16    19    1
    37    16    20    1
@<TRIPOS>MOLECULE
*****
 35 37 0 0 0
SMALL
GASTEIGER

@<TRIPOS>ATOM
      1 N         138.8368  139.7321  160.0660 N.3     1  UNL1       -0.2705
      2 C         138.4593  141.0600  160.6529 C.3     1  UNL1        0.0739
      3 C         138.4399  141.2438  162.1414 C.3     1  UNL1        0.0394
      4 C         138.7981  140.0999  163.0431 C.3     1  UNL1        0.1017
      5 C         139.1756  138.7721  162.4563 C.3     1  UNL1        0.1490
      6 C         139.1950  138.5882  160.9677 C.3     1  UNL1        0.1037
      7 N         138.7787  140.2838  164.5318 N.am    1  UNL1       -0.2999
      8 C         140.0060  140.7707  165.2433 C.2     1  UNL1        0.2488
      9 O         141.2528  141.0739  164.4664 O.2     1  UNL1       -0.2700
     10 H         137.9604  140.0848  165.0417 H       1  UNL1        0.1498
     11 C         139.9866  140.9546  166.7319 C.ar    1  UNL1        0.0882
     12 C         140.5726  142.1932  167.3423 C.ar    1  UNL1        0.0202
     13 C         140.5532  142.3771  168.8308 C.ar    1  UNL1        0.0709
     14 CL        141.1392  143.6156  169.4412 Cl      1  UNL1       -0.0810
     15 C         139.9478  141.3224  169.7090 C.ar    1  UNL1        0.0553
     16 N         139.9283  141.5063  171.1975 N.pl3   1  UNL1       -0.3563
     17 C         139.3618  140.0839  169.0986 C.ar    1  UNL1        0.0520
     18 C         139.3812  139.9000  167.6100 C.ar    1  UNL1        0.1443
     19 H         140.3129  142.3192  171.5982 H       1  UNL1        0.1424
     20 H         139.5310  140.8141  171.7739 H       1  UNL1        0.1424
     21 O         138.7952  138.6614  166.9996 O.3     1  UNL1       -0.4712
     22 C         137.3723  138.2843  167.2879 C.3     1  UNL1        0.2525
     23 O         139.5337  137.6281  163.3581 O.3     1  UNL1       -0.3505
     24 C         140.9737  137.2742  163.5847 C.3     1  UNL1        0.1741
     25 C         138.8562  139.5483  158.5775 C.3     1  UNL1        0.0722
     26 N         142.2634  137.3500  156.6260 N.am    1  UNL1       -0.3055
     27 C         142.5424  138.5047  157.5418 C.3     1  UNL1        0.0910
     28 C         141.4067  139.2374  158.1923 C.3     1  UNL1        0.0229
     29 C         139.9920  138.8155  157.9270 C.3     1  UNL1        0.0194
     30 C         139.7130  137.6608  157.0111 C.3     1  UNL1        0.0229
     31 C         140.8487  136.9280  156.3606 C.3     1  UNL1        0.0910
     32 C         143.3992  136.6172  155.9755 C.2     1  UNL1        0.0613
     33 S         144.4795  137.3824  155.2702 S.2     1  UNL1       -0.0395
     34 C         143.4992  134.4183  157.3556 C.3     1  UNL1        0.0070
     35 C         143.4546  135.1193  156.0302 C.3     1  UNL1        0.0484
@<TRIPOS>BOND
     1    34    35    1
     2    35    32    1
     3    32    33    2
     4    32    26    1
     5    26    27    1
     6    27    28    1
     7    28    29    1
     8    29    25    1
     9    25     1    1
    10     1     2    1
    11     2     3    1
    12     3     4    1
    13     4     7    1
    14     7     8   am
    15     8     9    2
    16     8    11    1
    17    11    12   ar
    18    12    13   ar
    19    13    14    1
    20    13    15   ar
    21    15    16    1
    22    15    17   ar
    23    17    18   ar
    24    18    21    1
    25    21    22    1
    26     4     5    1
    27     5    23    1
    28    23    24    1
    29     5     6    1
    30    29    30    1
    31    30    31    1
    32    31    26    1
    33     6     1    1
    34    18    11   ar
    35     7    10    1
    36    16    19    1
    37    16    20    1
@<TRIPOS>MOLECULE
*****
 35 37 0 0 0
SMALL
GASTEIGER

@<TRIPOS>ATOM
      1 N         142.0218  138.0436  158.3085 N.3     1  UNL1       -0.2705
      2 C         142.9868  137.9768  159.4551 C.3     1  UNL1        0.0739
      3 C         142.5507  138.3959  160.8277 C.3     1  UNL1        0.0394
      4 C         141.1497  138.8818  161.0539 C.3     1  UNL1        0.1017
      5 C         140.1848  138.9486  159.9075 C.3     1  UNL1        0.1490
      6 C         140.6208  138.5295  158.5347 C.3     1  UNL1        0.1037
      7 N         140.7137  139.3009  162.4266 N.am    1  UNL1       -0.2999
      8 C         140.5188  138.2703  163.4989 C.2     1  UNL1        0.2488
      9 O         140.7598  136.8206  163.1986 O.2     1  UNL1       -0.2700
     10 H         140.5555  140.2524  162.6238 H       1  UNL1        0.1498
     11 C         140.0828  138.6895  164.8715 C.ar    1  UNL1        0.0882
     12 C         138.7979  138.1668  165.4427 C.ar    1  UNL1        0.0202
     13 C         138.3619  138.5859  166.8153 C.ar    1  UNL1        0.0709
     14 CL        137.0772  138.0632  167.3863 Cl      1  UNL1       -0.0810
     15 C         139.2107  139.5277  167.6169 C.ar    1  UNL1        0.0553
     16 N         138.7747  139.9469  168.9895 N.pl3   1  UNL1       -0.3563
     17 C         140.4955  140.0504  167.0459 C.ar    1  UNL1        0.0520
     18 C         140.9315  139.6313  165.6732 C.ar    1  UNL1        0.1443
     19 H         137.9314  139.6038  169.3643 H       1  UNL1        0.1424
     20 H         139.3318  140.5650  169.5156 H       1  UNL1        0.1424
     21 O         142.2163  140.1540  165.1021 O.3     1  UNL1       -0.4712
     22 C         143.4823  139.3647  165.2581 C.3     1  UNL1        0.2525
     23 O         138.7838  139.4345  160.1336 O.3     1  UNL1       -0.3505
     24 C         138.1052  140.2769  159.0945 C.3     1  UNL1        0.1741
     25 C         142.4578  137.6245  156.9359 C.3     1  UNL1        0.0722
     26 N         142.0430  133.3302  155.6565 N.am    1  UNL1       -0.3055
     27 C         142.9728  133.6927  156.7763 C.3     1  UNL1        0.0910
     28 C         143.1111  135.1241  157.2028 C.3     1  UNL1        0.0229
     29 C         142.3196  136.1931  156.5094 C.3     1  UNL1        0.0194
     30 C         141.3898  135.8306  155.3896 C.3     1  UNL1        0.0229
     31 C         141.2515  134.3992  154.9631 C.3     1  UNL1        0.0910
     32 C         141.9047  131.8988  155.2300 C.2     1  UNL1        0.0613
     33 S         143.1274  131.0495  155.0463 S.2     1  UNL1       -0.0395
     34 C         140.2803  130.5181  153.7451 C.3     1  UNL1        0.0070
     35 C         140.5438  131.3166  154.9873 C.3     1  UNL1        0.0484
@<TRIPOS>BOND
     1    34    35    1
     2    35    32    1
     3    32    33    2
     4    32    26    1
     5    26    27    1
     6    27    28    1
     7    28    29    1
     8    29    25    1
     9    25     1    1
    10     1     2    1
    11     2     3    1
    12     3     4    1
    13     4     7    1
    14     7     8   am
    15     8     9    2
    16     8    11    1
    17    11    12   ar
    18    12    13   ar
    19    13    14    1
    20    13    15   ar
    21    15    16    1
    22    15    17   ar
    23    17    18   ar
    24    18    21    1
    25    21    22    1
    26     4     5    1
    27     5    23    1
    28    23    24    1
    29     5     6    1
    30    29    30    1
    31    30    31    1
    32    31    26    1
    33     6     1    1
    34    18    11   ar
    35     7    10    1
    36    16    19    1
    37    16    20    1
@<TRIPOS>MOLECULE
*****
 35 37 0 0 0
SMALL
GASTEIGER

@<TRIPOS>ATOM
      1 N         139.4352  139.8546  160.0882 N.3     1  UNL1       -0.2705
      2 C         138.7177  138.8573  160.9488 C.3     1  UNL1        0.0739
      3 C         138.7195  139.0151  162.4404 C.3     1  UNL1        0.0394
      4 C         139.4390  140.1701  163.0716 C.3     1  UNL1        0.1017
      5 C         140.1565  141.1673  162.2110 C.3     1  UNL1        0.1490
      6 C         140.1547  141.0096  160.7193 C.3     1  UNL1        0.1037
      7 N         139.4408  140.3278  164.5633 N.am    1  UNL1       -0.2999
      8 C         140.6047  139.8310  165.3686 C.2     1  UNL1        0.2488
      9 O         141.7668  139.1764  164.6822 O.2     1  UNL1       -0.2700
     10 H         138.6782  140.7574  165.0138 H       1  UNL1        0.1498
     11 C         140.6065  139.9887  166.8602 C.ar    1  UNL1        0.0882
     12 C         141.8780  140.3366  167.5761 C.ar    1  UNL1        0.0202
     13 C         141.8798  140.4944  169.0677 C.ar    1  UNL1        0.0709
     14 CL        143.1512  140.8423  169.7835 Cl      1  UNL1       -0.0810
     15 C         140.6102  140.3042  169.8436 C.ar    1  UNL1        0.0553
     16 N         140.6120  140.4620  171.3352 N.pl3   1  UNL1       -0.3563
     17 C         139.3388  139.9563  169.1278 C.ar    1  UNL1        0.0520
     18 C         139.3369  139.7985  167.6361 C.ar    1  UNL1        0.1443
     19 H         141.4465  140.6903  171.8051 H       1  UNL1        0.1424
     20 H         139.7787  140.3371  171.8444 H       1  UNL1        0.1424
     21 O         138.0655  139.4506  166.9203 O.3     1  UNL1       -0.4712
     22 C         137.6102  138.0231  166.8512 C.3     1  UNL1        0.2525
     23 O         140.8760  142.3224  162.8422 O.3     1  UNL1       -0.3505
     24 C         142.3756  142.3596  162.8472 C.3     1  UNL1        0.1741
     25 C         139.4334  139.6968  158.5965 C.3     1  UNL1        0.0722
     26 N         141.9902  136.5376  156.6648 N.am    1  UNL1       -0.3055
     27 C         140.6211  136.8276  156.1253 C.3     1  UNL1        0.0910
     28 C         139.7688  137.8807  156.7692 C.3     1  UNL1        0.0229
     29 C         140.2856  138.6437  157.9526 C.3     1  UNL1        0.0194
     30 C         141.6548  138.3537  158.4922 C.3     1  UNL1        0.0229
     31 C         142.5071  137.3006  157.8483 C.3     1  UNL1        0.0910
     32 C         142.8425  135.4845  156.0209 C.2     1  UNL1        0.0613
     33 S         142.7973  135.2885  154.5345 S.2     1  UNL1       -0.0395
     34 C         143.2645  133.2879  157.3427 C.3     1  UNL1        0.0070
     35 C         143.7400  134.6274  156.8635 C.3     1  UNL1        0.0484
@<TRIPOS>BOND
     1    34    35    1
     2    35    32    1
     3    32    33    2
     4    32    26    1
     5    26    27    1
     6    27    28    1
     7    28    29    1
     8    29    25    1
     9    25     1    1
    10     1     2    1
    11     2     3    1
    12     3     4    1
    13     4     7    1
    14     7     8   am
    15     8     9    2
    16     8    11    1
    17    11    12   ar
    18    12    13   ar
    19    13    14    1
    20    13    15   ar
    21    15    16    1
    22    15    17   ar
    23    17    18   ar
    24    18    21    1
    25    21    22    1
    26     4     5    1
    27     5    23    1
    28    23    24    1
    29     5     6    1
    30    29    30    1
    31    30    31    1
    32    31    26    1
    33     6     1    1
    34    18    11   ar
    35     7    10    1
    36    16    19    1
    37    16    20    1
@<TRIPOS>MOLECULE
*****
 35 37 0 0 0
SMALL
GASTEIGER

@<TRIPOS>ATOM
      1 N         141.4595  137.9636  157.7934 N.3     1  UNL1       -0.2705
      2 C         140.0563  138.1390  158.2938 C.3     1  UNL1        0.0739
      3 C         139.8140  138.6410  159.6864 C.3     1  UNL1        0.0394
      4 C         140.9747  138.9676  160.5785 C.3     1  UNL1        0.1017
      5 C         142.3779  138.7922  160.0781 C.3     1  UNL1        0.1490
      6 C         142.6203  138.2902  158.6855 C.3     1  UNL1        0.1037
      7 N         140.7323  139.4696  161.9712 N.am    1  UNL1       -0.2999
      8 C         140.7646  138.5159  163.1284 C.2     1  UNL1        0.2488
      9 O         141.0393  137.0601  162.8932 O.2     1  UNL1       -0.2700
     10 H         140.5520  140.4250  162.1256 H       1  UNL1        0.1498
     11 C         140.5222  139.0179  164.5209 C.ar    1  UNL1        0.0882
     12 C         141.6312  138.9933  165.5308 C.ar    1  UNL1        0.0202
     13 C         141.3888  139.4953  166.9233 C.ar    1  UNL1        0.0709
     14 CL        142.4977  139.4707  167.9330 Cl      1  UNL1       -0.0810
     15 C         140.0374  140.0220  167.3061 C.ar    1  UNL1        0.0553
     16 N         139.7950  140.5240  168.6986 N.pl3   1  UNL1       -0.3563
     17 C         138.9285  140.0466  166.2963 C.ar    1  UNL1        0.0520
     18 C         139.1709  139.5446  164.9037 C.ar    1  UNL1        0.1443
     19 H         140.5229  140.5078  169.3613 H       1  UNL1        0.1424
     20 H         138.9081  140.8696  168.9498 H       1  UNL1        0.1424
     21 O         138.0619  139.5692  163.8940 O.3     1  UNL1       -0.4712
     22 C         137.6393  140.8688  163.2757 C.3     1  UNL1        0.2525
     23 O         143.5386  139.1188  160.9703 O.3     1  UNL1       -0.3505
     24 C         144.0668  140.5215  161.0305 C.3     1  UNL1        0.1741
     25 C         141.7018  137.4616  156.4008 C.3     1  UNL1        0.0722
     26 N         142.6640  133.1204  155.7096 N.am    1  UNL1       -0.3055
     27 C         143.5597  133.9589  156.5724 C.3     1  UNL1        0.0910
     28 C         143.2389  135.4060  156.8029 C.3     1  UNL1        0.0229
     29 C         142.0226  136.0145  156.1704 C.3     1  UNL1        0.0194
     30 C         141.1269  135.1760  155.3075 C.3     1  UNL1        0.0229
     31 C         141.4476  133.7289  155.0771 C.3     1  UNL1        0.0910
     32 C         142.9847  131.6733  155.4792 C.2     1  UNL1        0.0613
     33 S         143.3100  131.1879  154.0977 S.2     1  UNL1       -0.0395
     34 C         144.2481  130.4371  157.3832 C.3     1  UNL1        0.0070
     35 C         142.9802  130.7116  156.6302 C.3     1  UNL1        0.0484
@<TRIPOS>BOND
     1    34    35    1
     2    35    32    1
     3    32    33    2
     4    32    26    1
     5    26    27    1
     6    27    28    1
     7    28    29    1
     8    29    25    1
     9    25     1    1
    10     1     2    1
    11     2     3    1
    12     3     4    1
    13     4     7    1
    14     7     8   am
    15     8     9    2
    16     8    11    1
    17    11    12   ar
    18    12    13   ar
    19    13    14    1
    20    13    15   ar
    21    15    16    1
    22    15    17   ar
    23    17    18   ar
    24    18    21    1
    25    21    22    1
    26     4     5    1
    27     5    23    1
    28    23    24    1
    29     5     6    1
    30    29    30    1
    31    30    31    1
    32    31    26    1
    33     6     1    1
    34    18    11   ar
    35     7    10    1
    36    16    19    1
    37    16    20    1
@<TRIPOS>MOLECULE
*****
 35 37 0 0 0
SMALL
GASTEIGER

@<TRIPOS>ATOM
      1 N         141.3409  138.3825  160.3266 N.3     1  UNL1       -0.2705
      2 C         142.4317  137.9897  161.2784 C.3     1  UNL1        0.0739
      3 C         142.2111  138.0981  162.7581 C.3     1  UNL1        0.0394
      4 C         140.8997  138.5994  163.2861 C.3     1  UNL1        0.1017
      5 C         139.8088  138.9922  162.3345 C.3     1  UNL1        0.1490
      6 C         140.0294  138.8838  160.8547 C.3     1  UNL1        0.1037
      7 N         140.6791  138.7078  164.7659 N.am    1  UNL1       -0.2999
      8 C         141.3143  139.8253  165.5390 C.2     1  UNL1        0.2488
      9 O         142.1701  140.8344  164.8324 O.2     1  UNL1       -0.2700
     10 H         140.1174  138.0455  165.2297 H       1  UNL1        0.1498
     11 C         141.0937  139.9336  167.0187 C.ar    1  UNL1        0.0882
     12 C         142.2616  140.1346  167.9384 C.ar    1  UNL1        0.0202
     13 C         142.0410  140.2430  169.4181 C.ar    1  UNL1        0.0709
     14 CL        143.2088  140.4440  170.3377 Cl      1  UNL1       -0.0810
     15 C         140.6526  140.1504  169.9782 C.ar    1  UNL1        0.0553
     16 N         140.4320  140.2587  171.4579 N.pl3   1  UNL1       -0.3563
     17 C         139.4848  139.9494  169.0586 C.ar    1  UNL1        0.0520
     18 C         139.7053  139.8410  167.5788 C.ar    1  UNL1        0.1443
     19 H         141.1985  140.3906  172.0615 H       1  UNL1        0.1424
     20 H         139.5207  140.1979  171.8254 H       1  UNL1        0.1424
     21 O         138.5375  139.6400  166.6592 O.3     1  UNL1       -0.4712
     22 C         137.7245  138.3822  166.7432 C.3     1  UNL1        0.2525
     23 O         138.4974  139.4935  162.8625 O.3     1  UNL1       -0.3505
     24 C         138.3753  140.9078  163.3472 C.3     1  UNL1        0.1741
     25 C         141.5615  138.2741  158.8470 C.3     1  UNL1        0.0722
     26 N         144.8108  140.6823  156.8741 N.am    1  UNL1       -0.3055
     27 C         144.2107  139.5068  156.1614 C.3     1  UNL1        0.0910
     28 C         143.1275  138.7041  156.8190 C.3     1  UNL1        0.0229
     29 C         142.6446  139.0769  158.1893 C.3     1  UNL1        0.0194
     30 C         143.2448  140.2524  158.9020 C.3     1  UNL1        0.0229
     31 C         144.3279  141.0551  158.2444 C.3     1  UNL1        0.0910
     32 C         145.8939  141.4850  156.2164 C.2     1  UNL1        0.0613
     33 S         146.6548  142.5076  157.0072 S.2     1  UNL1       -0.0395
     34 C         147.4711  141.8421  154.1829 C.3     1  UNL1        0.0070
     35 C         146.2162  141.2652  154.7681 C.3     1  UNL1        0.0484
@<TRIPOS>BOND
     1    34    35    1
     2    35    32    1
     3    32    33    2
     4    32    26    1
     5    26    27    1
     6    27    28    1
     7    28    29    1
     8    29    25    1
     9    25     1    1
    10     1     2    1
    11     2     3    1
    12     3     4    1
    13     4     7    1
    14     7     8   am
    15     8     9    2
    16     8    11    1
    17    11    12   ar
    18    12    13   ar
    19    13    14    1
    20    13    15   ar
    21    15    16    1
    22    15    17   ar
    23    17    18   ar
    24    18    21    1
    25    21    22    1
    26     4     5    1
    27     5    23    1
    28    23    24    1
    29     5     6    1
    30    29    30    1
    31    30    31    1
    32    31    26    1
    33     6     1    1
    34    18    11   ar
    35     7    10    1
    36    16    19    1
    37    16    20    1
@<TRIPOS>MOLECULE
*****
 35 37 0 0 0
SMALL
GASTEIGER

@<TRIPOS>ATOM
      1 N         139.0203  139.9671  159.8114 N.3     1  UNL1       -0.2705
      2 C         139.8683  139.0502  160.6423 C.3     1  UNL1        0.0739
      3 C         139.8303  139.1441  162.1388 C.3     1  UNL1        0.0394
      4 C         138.9443  140.1549  162.8046 C.3     1  UNL1        0.1017
      5 C         138.0963  141.0718  161.9739 C.3     1  UNL1        0.1490
      6 C         138.1343  140.9779  160.4772 C.3     1  UNL1        0.1037
      7 N         138.9063  140.2488  164.3012 N.am    1  UNL1       -0.2999
      8 C         139.9701  141.0131  165.0320 C.2     1  UNL1        0.2488
      9 O         141.0720  141.6836  164.2662 O.2     1  UNL1       -0.2700
     10 H         138.1831  139.8087  164.8039 H       1  UNL1        0.1498
     11 C         139.9321  141.1069  166.5286 C.ar    1  UNL1        0.0882
     12 C         140.4448  142.3376  167.2162 C.ar    1  UNL1        0.0202
     13 C         140.4067  142.4314  168.7127 C.ar    1  UNL1        0.0709
     14 CL        140.9194  143.6621  169.4002 Cl      1  UNL1       -0.0810
     15 C         139.8561  141.2947  169.5217 C.ar    1  UNL1        0.0553
     16 N         139.8181  141.3885  171.0183 N.pl3   1  UNL1       -0.3563
     17 C         139.3435  140.0640  168.8342 C.ar    1  UNL1        0.0520
     18 C         139.3815  139.9701  167.3376 C.ar    1  UNL1        0.1443
     19 H         140.1545  142.1962  171.4695 H       1  UNL1        0.1424
     20 H         139.4567  140.6424  171.5493 H       1  UNL1        0.1424
     21 O         138.8689  138.7395  166.6501 O.3     1  UNL1       -0.4712
     22 C         137.5189  138.1898  167.0042 C.3     1  UNL1        0.2525
     23 O         137.2103  142.0826  162.6397 O.3     1  UNL1       -0.3505
     24 C         137.7359  143.4533  162.9479 C.3     1  UNL1        0.1741
     25 C         139.0583  139.8732  158.3149 C.3     1  UNL1        0.0722
     26 N         139.2922  143.6181  155.8307 N.am    1  UNL1       -0.3055
     27 C         140.3752  143.3057  156.8203 C.3     1  UNL1        0.0910
     28 C         140.2973  142.0574  157.6483 C.3     1  UNL1        0.0229
     29 C         139.1362  141.1215  157.4868 C.3     1  UNL1        0.0194
     30 C         138.0532  141.4339  156.4972 C.3     1  UNL1        0.0229
     31 C         138.1312  142.6822  155.6691 C.3     1  UNL1        0.0910
     32 C         139.3701  144.8664  155.0026 C.2     1  UNL1        0.0613
     33 S         140.1801  144.8796  153.7402 S.2     1  UNL1       -0.0395
     34 C         139.2918  147.0686  156.3787 C.3     1  UNL1        0.0070
     35 C         138.6381  146.1014  155.4369 C.3     1  UNL1        0.0484
@<TRIPOS>BOND
     1    34    35    1
     2    35    32    1
     3    32    33    2
     4    32    26    1
     5    26    27    1
     6    27    28    1
     7    28    29    1
     8    29    25    1
     9    25     1    1
    10     1     2    1
    11     2     3    1
    12     3     4    1
    13     4     7    1
    14     7     8   am
    15     8     9    2
    16     8    11    1
    17    11    12   ar
    18    12    13   ar
    19    13    14    1
    20    13    15   ar
    21    15    16    1
    22    15    17   ar
    23    17    18   ar
    24    18    21    1
    25    21    22    1
    26     4     5    1
    27     5    23    1
    28    23    24    1
    29     5     6    1
    30    29    30    1
    31    30    31    1
    32    31    26    1
    33     6     1    1
    34    18    11   ar
    35     7    10    1
    36    16    19    1
    37    16    20    1
