@<TRIPOS>MOLECULE
*****
 31 35 0 0 0
SMALL
GASTEIGER

@<TRIPOS>ATOM
      1 C         140.5223  140.9830  166.8108 C.ar    1  UNL1        0.0015
      2 C         140.7583  139.5081  166.6730 C.ar    1  UNL1        0.0031
      3 C         140.1954  138.7650  165.4979 C.ar    1  UNL1        0.0366
      4 C         139.3964  139.4968  164.4606 C.ar    1  UNL1        0.1360
      5 C         139.1604  140.9717  164.5983 C.ar    1  UNL1        0.0357
      6 C         139.7234  141.7148  165.7735 C.ar    1  UNL1        0.0007
      7 C         138.3615  141.7035  163.5610 C.3     1  UNL1        0.1580
      8 C         137.5866  142.5652  162.6085 C.3     1  UNL1        0.2351
      9 O         137.6052  143.9700  163.1343 O.2     1  UNL1       -0.4478
     10 C         138.3914  143.9765  164.4116 C.2     1  UNL1        0.2770
     11 N         138.6627  145.1735  165.2739 N.pl3   1  UNL1       -0.3133
     12 N         138.8589  142.5758  164.6754 N.2     1  UNL1       -0.2202
     13 C         137.7985  140.9605  162.3859 C.3     1  UNL1        0.1141
     14 C         138.0214  140.7563  162.6753 C.3     1  UNL1        0.1501
     15 O         137.7871  140.9709  162.3711 O.3     1  UNL1       -0.3532
     16 C         138.0214  140.7563  162.6753 C.3     1  UNL1        0.1501
     17 C         138.0345  139.4856  162.2481 C.3     1  UNL1        0.1398
     18 C         137.9873  138.0975  161.6817 C.3     1  UNL1        0.0438
     19 C         137.2192  139.7353  161.0140 C.3     1  UNL1        0.0438
     20 O         138.8335  138.7538  163.2855 O.3     1  UNL1       -0.4826
     21 H         138.3113  146.0561  165.0155 H       1  UNL1        0.1466
     22 H         139.1921  145.0765  166.0982 H       1  UNL1        0.1466
     23 C         140.9102  143.6455  169.7282 C.ar    1  UNL1        0.0608
     24 C         142.2112  143.2122  170.3362 C.ar    1  UNL1        0.1071
     25 N         142.9492  142.0359  169.7692 N.ar    1  UNL1       -0.2417
     26 C         142.3863  141.2928  168.5940 C.ar    1  UNL1        0.0989
     27 C         141.0853  141.7261  167.9860 C.ar    1  UNL1        0.0198
     28 C         140.3473  142.9024  168.5531 C.ar    1  UNL1        0.0113
     29 C         138.6961  147.1744  171.4293 C.3     1  UNL1        0.0903
     30 C         139.4341  145.9981  170.8623 C.1     1  UNL1       -0.0853
     31 C         140.1722  144.8218  170.2952 C.1     1  UNL1       -0.0628
@<TRIPOS>BOND
     1    29    30    1
     2    30    31    3
     3    31    23    1
     4    23    24   ar
     5    24    25   ar
     6    25    26   ar
     7    26    27   ar
     8    27     1    1
     9     1     2   ar
    10     2     3   ar
    11     3     4   ar
    12     4     5   ar
    13     5     6   ar
    14     5     7    1
    15     7     8    1
    16     8     9    1
    17     9    10    1
    18    10    11    1
    19    10    12    2
    20     7    13    1
    21    13    14    1
    22    14    15    1
    23    15    16    1
    24    13    17    1
    25    17    18    1
    26    17    19    1
    27    17    20    1
    28    27    28   ar
    29    28    23   ar
    30     6     1   ar
    31    12     7    1
    32    16    13    1
    33    20     4    1
    34    11    21    1
    35    11    22    1
@<TRIPOS>MOLECULE
*****
 31 35 0 0 0
SMALL
GASTEIGER

@<TRIPOS>ATOM
      1 C         141.9352  140.9070  166.5138 C.ar    1  UNL1        0.0015
      2 C         143.2296  141.5197  166.0672 C.ar    1  UNL1        0.0031
      3 C         143.8289  141.1289  164.7489 C.ar    1  UNL1        0.0366
      4 C         143.1339  140.1254  163.8771 C.ar    1  UNL1        0.1360
      5 C         141.8396  139.5128  164.3236 C.ar    1  UNL1        0.0357
      6 C         141.2402  139.9036  165.6420 C.ar    1  UNL1        0.0007
      7 C         141.1446  138.5093  163.4518 C.3     1  UNL1        0.1580
      8 C         140.3391  137.4979  162.6913 C.3     1  UNL1        0.2351
      9 O         139.1252  137.1640  163.5068 O.2     1  UNL1       -0.4478
     10 C         139.1804  137.9689  164.7712 C.2     1  UNL1        0.2770
     11 N         138.1658  137.9464  165.8757 N.pl3   1  UNL1       -0.3133
     12 N         140.4285  138.8004  164.7373 N.2     1  UNL1       -0.2202
     13 C         141.7439  138.1185  162.1335 C.3     1  UNL1        0.1141
     14 C         141.9378  138.3985  162.3767 C.3     1  UNL1        0.1501
     15 O         141.7340  138.1042  162.1210 O.3     1  UNL1       -0.3532
     16 C         141.9378  138.3985  162.3767 C.3     1  UNL1        0.1501
     17 C         143.0382  138.7312  161.6869 C.3     1  UNL1        0.1398
     18 C         144.2355  139.0315  160.8348 C.3     1  UNL1        0.0438
     19 C         142.7590  137.8320  160.5191 C.3     1  UNL1        0.0438
     20 O         143.7332  139.7346  162.5587 O.3     1  UNL1       -0.4826
     21 H         137.3750  137.3642  165.8059 H       1  UNL1        0.1466
     22 H         138.2907  138.5139  166.6705 H       1  UNL1        0.1466
     23 C         139.5618  140.9310  169.6944 C.ar    1  UNL1        0.0608
     24 C         140.1373  142.0794  170.4689 C.ar    1  UNL1        0.1071
     25 N         141.3121  142.8370  169.9251 N.ar    1  UNL1       -0.2417
     26 C         141.9115  142.4463  168.6067 C.ar    1  UNL1        0.0989
     27 C         141.3359  141.2978  167.8322 C.ar    1  UNL1        0.0198
     28 C         140.1611  140.5402  168.3761 C.ar    1  UNL1        0.0113
     29 C         136.0374  138.6580  171.3259 C.3     1  UNL1        0.0903
     30 C         137.2122  139.4156  170.7821 C.1     1  UNL1       -0.0853
     31 C         138.3870  140.1733  170.2383 C.1     1  UNL1       -0.0628
@<TRIPOS>BOND
     1    29    30    1
     2    30    31    3
     3    31    23    1
     4    23    24   ar
     5    24    25   ar
     6    25    26   ar
     7    26    27   ar
     8    27     1    1
     9     1     2   ar
    10     2     3   ar
    11     3     4   ar
    12     4     5   ar
    13     5     6   ar
    14     5     7    1
    15     7     8    1
    16     8     9    1
    17     9    10    1
    18    10    11    1
    19    10    12    2
    20     7    13    1
    21    13    14    1
    22    14    15    1
    23    15    16    1
    24    13    17    1
    25    17    18    1
    26    17    19    1
    27    17    20    1
    28    27    28   ar
    29    28    23   ar
    30     6     1   ar
    31    12     7    1
    32    16    13    1
    33    20     4    1
    34    11    21    1
    35    11    22    1
@<TRIPOS>MOLECULE
*****
 31 35 0 0 0
SMALL
GASTEIGER

@<TRIPOS>ATOM
      1 C         142.8549  141.9444  165.2220 C.ar    1  UNL1        0.0015
      2 C         143.5689  142.5245  166.4068 C.ar    1  UNL1        0.0031
      3 C         143.0278  142.3072  167.7888 C.ar    1  UNL1        0.0366
      4 C         141.7726  141.5099  167.9860 C.ar    1  UNL1        0.1360
      5 C         141.0587  140.9298  166.8013 C.ar    1  UNL1        0.0357
      6 C         141.5998  141.1471  165.4192 C.ar    1  UNL1        0.0007
      7 C         139.8035  140.1325  166.9985 C.3     1  UNL1        0.1580
      8 C         138.5448  139.3176  167.0398 C.3     1  UNL1        0.2351
      9 O         138.1862  138.9469  165.6312 O.2     1  UNL1       -0.4478
     10 C         139.2233  139.5327  164.7194 C.2     1  UNL1        0.2770
     11 N         139.2552  139.4077  163.2250 N.pl3   1  UNL1       -0.3133
     12 N         140.2228  140.2654  165.5644 N.2     1  UNL1       -0.2202
     13 C         139.2624  139.9152  168.3805 C.3     1  UNL1        0.1141
     14 C         139.6126  140.1377  168.3255 C.3     1  UNL1        0.1501
     15 O         139.2445  139.9039  168.3833 O.3     1  UNL1       -0.3532
     16 C         139.6126  140.1377  168.3255 C.3     1  UNL1        0.1501
     17 C         139.9764  140.4953  169.5653 C.3     1  UNL1        0.1398
     18 C         140.2926  140.8401  170.9904 C.3     1  UNL1        0.0438
     19 C         138.8310  139.8177  170.2575 C.3     1  UNL1        0.0438
     20 O         141.2315  141.2927  169.3680 O.3     1  UNL1       -0.4826
     21 H         138.5502  138.9035  162.7580 H       1  UNL1        0.1466
     22 H         139.9811  139.8298  162.7111 H       1  UNL1        0.1466
     23 C         143.1230  143.1243  161.4423 C.ar    1  UNL1        0.0608
     24 C         144.4783  142.5962  161.0759 C.ar    1  UNL1        0.1071
     25 N         145.2925  141.8508  162.0915 N.ar    1  UNL1       -0.2417
     26 C         144.7513  141.6335  163.4736 C.ar    1  UNL1        0.0989
     27 C         143.3961  142.1616  163.8400 C.ar    1  UNL1        0.0198
     28 C         142.5819  142.9071  162.8243 C.ar    1  UNL1        0.0113
     29 C         140.6805  145.3605  158.3954 C.3     1  UNL1        0.0903
     30 C         141.4946  144.6151  159.4110 C.1     1  UNL1       -0.0853
     31 C         142.3089  143.8697  160.4267 C.1     1  UNL1       -0.0628
@<TRIPOS>BOND
     1    29    30    1
     2    30    31    3
     3    31    23    1
     4    23    24   ar
     5    24    25   ar
     6    25    26   ar
     7    26    27   ar
     8    27     1    1
     9     1     2   ar
    10     2     3   ar
    11     3     4   ar
    12     4     5   ar
    13     5     6   ar
    14     5     7    1
    15     7     8    1
    16     8     9    1
    17     9    10    1
    18    10    11    1
    19    10    12    2
    20     7    13    1
    21    13    14    1
    22    14    15    1
    23    15    16    1
    24    13    17    1
    25    17    18    1
    26    17    19    1
    27    17    20    1
    28    27    28   ar
    29    28    23   ar
    30     6     1   ar
    31    12     7    1
    32    16    13    1
    33    20     4    1
    34    11    21    1
    35    11    22    1
@<TRIPOS>MOLECULE
*****
 31 35 0 0 0
SMALL
GASTEIGER

@<TRIPOS>ATOM
      1 C         142.8252  141.7284  164.7985 C.ar    1  UNL1        0.0015
      2 C         143.5681  142.4155  165.9059 C.ar    1  UNL1        0.0031
      3 C         143.0641  142.3254  167.3158 C.ar    1  UNL1        0.0366
      4 C         141.8174  141.5482  167.6185 C.ar    1  UNL1        0.1360
      5 C         141.0746  140.8611  166.5112 C.ar    1  UNL1        0.0357
      6 C         141.5785  140.9512  165.1012 C.ar    1  UNL1        0.0007
      7 C         139.8279  140.0839  166.8138 C.3     1  UNL1        0.1580
      8 C         138.5735  139.2749  166.9629 C.3     1  UNL1        0.2351
      9 O         138.1794  138.7761  165.6042 O.2     1  UNL1       -0.4478
     10 C         139.1901  139.2768  164.6154 C.2     1  UNL1        0.2770
     11 N         139.1832  139.0153  163.1385 N.pl3   1  UNL1       -0.3133
     12 N         140.2089  140.0851  165.3630 N.2     1  UNL1       -0.2202
     13 C         139.3239  139.9938  168.2237 C.3     1  UNL1        0.1141
     14 C         139.6718  140.2106  168.1393 C.3     1  UNL1        0.1501
     15 O         139.3061  139.9827  168.2281 O.3     1  UNL1       -0.3532
     16 C         139.6718  140.2106  168.1393 C.3     1  UNL1        0.1501
     17 C         140.0667  140.6809  169.3310 C.3     1  UNL1        0.1398
     18 C         140.4190  141.1552  170.7097 C.3     1  UNL1        0.0438
     19 C         138.9423  140.0684  170.1126 C.3     1  UNL1        0.0438
     20 O         141.3135  141.4581  169.0284 O.3     1  UNL1       -0.4826
     21 H         138.4680  138.4696  162.7385 H       1  UNL1        0.1466
     22 H         139.8940  139.3893  162.5691 H       1  UNL1        0.1466
     23 C         143.5333  140.8091  161.0034 C.ar    1  UNL1        0.0608
     24 C         144.3370  141.9987  160.5687 C.ar    1  UNL1        0.1071
     25 N         144.6368  143.0982  161.5440 N.ar    1  UNL1       -0.2417
     26 C         144.1329  143.0081  162.9540 C.ar    1  UNL1        0.0989
     27 C         143.3292  141.8185  163.3886 C.ar    1  UNL1        0.0198
     28 C         143.0294  140.7190  162.4133 C.ar    1  UNL1        0.0113
     29 C         142.6340  137.5106  158.0775 C.3     1  UNL1        0.0903
     30 C         142.9338  138.6101  159.0527 C.1     1  UNL1       -0.0853
     31 C         143.2336  139.7096  160.0281 C.1     1  UNL1       -0.0628
@<TRIPOS>BOND
     1    29    30    1
     2    30    31    3
     3    31    23    1
     4    23    24   ar
     5    24    25   ar
     6    25    26   ar
     7    26    27   ar
     8    27     1    1
     9     1     2   ar
    10     2     3   ar
    11     3     4   ar
    12     4     5   ar
    13     5     6   ar
    14     5     7    1
    15     7     8    1
    16     8     9    1
    17     9    10    1
    18    10    11    1
    19    10    12    2
    20     7    13    1
    21    13    14    1
    22    14    15    1
    23    15    16    1
    24    13    17    1
    25    17    18    1
    26    17    19    1
    27    17    20    1
    28    27    28   ar
    29    28    23   ar
    30     6     1   ar
    31    12     7    1
    32    16    13    1
    33    20     4    1
    34    11    21    1
    35    11    22    1
@<TRIPOS>MOLECULE
*****
 31 35 0 0 0
SMALL
GASTEIGER

@<TRIPOS>ATOM
      1 C         142.5889  140.6649  164.2633 C.ar    1  UNL1        0.0015
      2 C         143.3914  141.5947  165.1244 C.ar    1  UNL1        0.0031
      3 C         142.9569  141.8759  166.5323 C.ar    1  UNL1        0.0366
      4 C         141.7198  141.2273  167.0791 C.ar    1  UNL1        0.1360
      5 C         140.9173  140.2975  166.2181 C.ar    1  UNL1        0.0357
      6 C         141.3518  140.0163  164.8101 C.ar    1  UNL1        0.0007
      7 C         139.6803  139.6488  166.7649 C.3     1  UNL1        0.1580
      8 C         138.4278  138.9307  167.1718 C.3     1  UNL1        0.2351
      9 O         137.9627  138.1119  166.0040 O.2     1  UNL1       -0.4478
     10 C         138.9278  138.3240  164.8755 C.2     1  UNL1        0.2770
     11 N         138.8458  137.6966  163.5156 N.pl3   1  UNL1       -0.3133
     12 N         139.9893  139.2739  165.3457 N.2     1  UNL1       -0.2202
     13 C         139.2457  139.9300  168.1727 C.3     1  UNL1        0.1141
     14 C         139.5909  140.1109  168.0202 C.3     1  UNL1        0.1501
     15 O         139.2281  139.9207  168.1805 O.3     1  UNL1       -0.3532
     16 C         139.5909  140.1109  168.0202 C.3     1  UNL1        0.1501
     17 C         140.0483  140.8598  169.0338 C.3     1  UNL1        0.1398
     18 C         140.4722  141.6609  170.2289 C.3     1  UNL1        0.0438
     19 C         138.9584  140.4894  169.9957 C.3     1  UNL1        0.0438
     20 O         141.2853  141.5084  168.4870 O.3     1  UNL1       -0.4826
     21 H         138.1070  137.0824  163.3006 H       1  UNL1        0.1466
     22 H         139.5308  137.8988  162.8380 H       1  UNL1        0.1466
     23 C         143.2351  141.1274  160.3751 C.ar    1  UNL1        0.0608
     24 C         143.8925  139.8215  160.0397 C.ar    1  UNL1        0.1071
     25 N         144.1153  138.7968  161.1121 N.ar    1  UNL1       -0.2417
     26 C         143.6808  139.0779  162.5200 C.ar    1  UNL1        0.0989
     27 C         143.0234  140.3838  162.8555 C.ar    1  UNL1        0.0198
     28 C         142.8005  141.4086  161.7829 C.ar    1  UNL1        0.0113
     29 C         142.5665  144.2017  157.1577 C.3     1  UNL1        0.0903
     30 C         142.7893  143.1769  158.2301 C.1     1  UNL1       -0.0853
     31 C         143.0122  142.1522  159.3026 C.1     1  UNL1       -0.0628
@<TRIPOS>BOND
     1    29    30    1
     2    30    31    3
     3    31    23    1
     4    23    24   ar
     5    24    25   ar
     6    25    26   ar
     7    26    27   ar
     8    27     1    1
     9     1     2   ar
    10     2     3   ar
    11     3     4   ar
    12     4     5   ar
    13     5     6   ar
    14     5     7    1
    15     7     8    1
    16     8     9    1
    17     9    10    1
    18    10    11    1
    19    10    12    2
    20     7    13    1
    21    13    14    1
    22    14    15    1
    23    15    16    1
    24    13    17    1
    25    17    18    1
    26    17    19    1
    27    17    20    1
    28    27    28   ar
    29    28    23   ar
    30     6     1   ar
    31    12     7    1
    32    16    13    1
    33    20     4    1
    34    11    21    1
    35    11    22    1
@<TRIPOS>MOLECULE
*****
 31 35 0 0 0
SMALL
GASTEIGER

@<TRIPOS>ATOM
      1 C         140.9085  141.4370  166.5734 C.ar    1  UNL1        0.0015
      2 C         139.5696  140.8261  166.2828 C.ar    1  UNL1        0.0031
      3 C         138.9058  141.0687  164.9598 C.ar    1  UNL1        0.0366
      4 C         139.5807  141.9221  163.9273 C.ar    1  UNL1        0.1360
      5 C         140.9195  142.5330  164.2179 C.ar    1  UNL1        0.0357
      6 C         141.5834  142.2905  165.5410 C.ar    1  UNL1        0.0007
      7 C         141.5945  143.3865  163.1854 C.3     1  UNL1        0.1580
      8 C         142.3866  144.2575  162.2559 C.3     1  UNL1        0.2351
      9 O         143.6580  144.6430  162.9525 O.2     1  UNL1       -0.4478
     10 C         143.6516  144.0102  164.3125 C.2     1  UNL1        0.2770
     11 N         144.7308  144.1325  165.3469 N.pl3   1  UNL1       -0.3133
     12 N         142.3763  143.2336  164.4565 N.2     1  UNL1       -0.2202
     13 C         140.9306  143.6291  161.8624 C.3     1  UNL1        0.1141
     14 C         140.7423  143.3910  162.1504 C.3     1  UNL1        0.1501
     15 O         140.9403  143.6413  161.8476 O.3     1  UNL1       -0.3532
     16 C         140.7423  143.3910  162.1504 C.3     1  UNL1        0.1501
     17 C         139.5919  143.0182  161.5718 C.3     1  UNL1        0.1398
     18 C         138.3360  142.6606  160.8336 C.3     1  UNL1        0.0438
     19 C         139.8306  143.7475  160.2829 C.3     1  UNL1        0.0438
     20 O         138.9169  142.1647  162.6043 O.3     1  UNL1       -0.4826
     21 H         145.5353  144.6677  165.1580 H       1  UNL1        0.1466
     22 H         144.6348  143.6775  166.2146 H       1  UNL1        0.1466
     23 C         143.3715  141.8273  169.6607 C.ar    1  UNL1        0.0608
     24 C         142.9000  140.7093  170.5426 C.ar    1  UNL1        0.1071
     25 N         141.7647  139.8339  170.1015 N.ar    1  UNL1       -0.2417
     26 C         141.1008  140.0764  168.7784 C.ar    1  UNL1        0.0989
     27 C         141.5723  141.1944  167.8965 C.ar    1  UNL1        0.0198
     28 C         142.7077  142.0698  168.3376 C.ar    1  UNL1        0.0113
     29 C         146.7776  144.4535  170.9840 C.3     1  UNL1        0.0903
     30 C         145.6423  143.5781  170.5428 C.1     1  UNL1       -0.0853
     31 C         144.5069  142.7027  170.1018 C.1     1  UNL1       -0.0628
@<TRIPOS>BOND
     1    29    30    1
     2    30    31    3
     3    31    23    1
     4    23    24   ar
     5    24    25   ar
     6    25    26   ar
     7    26    27   ar
     8    27     1    1
     9     1     2   ar
    10     2     3   ar
    11     3     4   ar
    12     4     5   ar
    13     5     6   ar
    14     5     7    1
    15     7     8    1
    16     8     9    1
    17     9    10    1
    18    10    11    1
    19    10    12    2
    20     7    13    1
    21    13    14    1
    22    14    15    1
    23    15    16    1
    24    13    17    1
    25    17    18    1
    26    17    19    1
    27    17    20    1
    28    27    28   ar
    29    28    23   ar
    30     6     1   ar
    31    12     7    1
    32    16    13    1
    33    20     4    1
    34    11    21    1
    35    11    22    1
@<TRIPOS>MOLECULE
*****
 31 35 0 0 0
SMALL
GASTEIGER

@<TRIPOS>ATOM
      1 C         140.7465  142.9074  164.6917 C.ar    1  UNL1        0.0015
      2 C         139.9958  143.5673  165.8102 C.ar    1  UNL1        0.0031
      3 C         140.0881  143.0170  167.2026 C.ar    1  UNL1        0.0366
      4 C         140.9311  141.8070  167.4765 C.ar    1  UNL1        0.1360
      5 C         141.6819  141.1471  166.3580 C.ar    1  UNL1        0.0357
      6 C         141.5896  141.6973  164.9656 C.ar    1  UNL1        0.0007
      7 C         142.5249  139.9370  166.6319 C.3     1  UNL1        0.1580
      8 C         143.4030  138.7270  166.7528 C.3     1  UNL1        0.2351
      9 O         143.9502  138.4134  165.3917 O.2     1  UNL1       -0.4478
     10 C         143.4102  139.4297  164.4297 C.2     1  UNL1        0.2770
     11 N         143.7001  139.4933  162.9594 N.pl3   1  UNL1       -0.3133
     12 N         142.5293  140.3714  165.1961 N.2     1  UNL1       -0.2202
     13 C         142.6172  139.3868  168.0243 C.3     1  UNL1        0.1141
     14 C         142.3820  139.7244  167.9479 C.3     1  UNL1        0.1501
     15 O         142.6292  139.3696  168.0282 O.3     1  UNL1       -0.3532
     16 C         142.3820  139.7244  167.9479 C.3     1  UNL1        0.1501
     17 C         141.8665  140.0467  169.1427 C.3     1  UNL1        0.1398
     18 C         141.3457  140.3191  170.5228 C.3     1  UNL1        0.0438
     19 C         142.5286  138.9312  169.8960 C.3     1  UNL1        0.0438
     20 O         141.0234  141.2567  168.8688 O.3     1  UNL1       -0.4826
     21 H         144.2944  138.8263  162.5456 H       1  UNL1        0.1466
     22 H         143.2961  140.2019  162.4082 H       1  UNL1        0.1466
     23 C         141.5919  143.6334  160.8827 C.ar    1  UNL1        0.0608
     24 C         140.4697  144.5581  160.5145 C.ar    1  UNL1        0.1071
     25 N         139.4397  144.9326  161.5387 N.ar    1  UNL1       -0.2417
     26 C         139.5320  144.3823  162.9312 C.ar    1  UNL1        0.0989
     27 C         140.6542  143.4576  163.2993 C.ar    1  UNL1        0.0198
     28 C         141.6842  143.0832  162.2751 C.ar    1  UNL1        0.0113
     29 C         144.6817  142.5100  157.8101 C.3     1  UNL1        0.0903
     30 C         143.6518  142.8845  158.8343 C.1     1  UNL1       -0.0853
     31 C         142.6218  143.2589  159.8585 C.1     1  UNL1       -0.0628
@<TRIPOS>BOND
     1    29    30    1
     2    30    31    3
     3    31    23    1
     4    23    24   ar
     5    24    25   ar
     6    25    26   ar
     7    26    27   ar
     8    27     1    1
     9     1     2   ar
    10     2     3   ar
    11     3     4   ar
    12     4     5   ar
    13     5     6   ar
    14     5     7    1
    15     7     8    1
    16     8     9    1
    17     9    10    1
    18    10    11    1
    19    10    12    2
    20     7    13    1
    21    13    14    1
    22    14    15    1
    23    15    16    1
    24    13    17    1
    25    17    18    1
    26    17    19    1
    27    17    20    1
    28    27    28   ar
    29    28    23   ar
    30     6     1   ar
    31    12     7    1
    32    16    13    1
    33    20     4    1
    34    11    21    1
    35    11    22    1
@<TRIPOS>MOLECULE
*****
 31 35 0 0 0
SMALL
GASTEIGER

@<TRIPOS>ATOM
      1 C         140.6700  141.4002  166.6297 C.ar    1  UNL1        0.0015
      2 C         139.3693  140.8305  166.1462 C.ar    1  UNL1        0.0031
      3 C         138.9409  141.0406  164.7242 C.ar    1  UNL1        0.0366
      4 C         139.8131  141.8204  163.7855 C.ar    1  UNL1        0.1360
      5 C         141.1137  142.3901  164.2689 C.ar    1  UNL1        0.0357
      6 C         141.5422  142.1801  165.6910 C.ar    1  UNL1        0.0007
      7 C         141.9859  143.1700  163.3302 C.3     1  UNL1        0.1580
      8 C         142.9578  143.9672  162.5117 C.3     1  UNL1        0.2351
      9 O         144.1157  144.3325  163.3927 O.2     1  UNL1       -0.4478
     10 C         143.8595  143.7610  164.7556 C.2     1  UNL1        0.2770
     11 N         144.7610  143.8859  165.9478 N.pl3   1  UNL1       -0.3133
     12 N         142.5432  143.0425  164.7171 N.2     1  UNL1       -0.2202
     13 C         141.5575  143.3801  161.9082 C.3     1  UNL1        0.1141
     14 C         141.3142  143.1625  162.1701 C.3     1  UNL1        0.1501
     15 O         141.5700  143.3912  161.8948 O.3     1  UNL1       -0.3532
     16 C         141.3142  143.1625  162.1701 C.3     1  UNL1        0.1501
     17 C         140.2569  142.8103  161.4248 C.3     1  UNL1        0.1398
     18 C         139.1224  142.4705  160.5043 C.3     1  UNL1        0.0438
     19 C         140.7351  143.4721  160.1664 C.3     1  UNL1        0.0438
     20 O         139.3847  142.0305  162.3635 O.3     1  UNL1       -0.4826
     21 H         145.6093  144.3801  165.8738 H       1  UNL1        0.1466
     22 H         144.5046  143.4738  166.8043 H       1  UNL1        0.1466
     23 C         142.2473  139.7230  169.8621 C.ar    1  UNL1        0.0608
     24 C         141.9552  140.7699  170.8959 C.ar    1  UNL1        0.1071
     25 N         141.2347  142.0269  170.5076 N.ar    1  UNL1       -0.2417
     26 C         140.8063  142.2370  169.0855 C.ar    1  UNL1        0.0989
     27 C         141.0984  141.1901  168.0517 C.ar    1  UNL1        0.0198
     28 C         141.8189  139.9331  168.4401 C.ar    1  UNL1        0.0113
     29 C         144.4088  135.9519  171.0270 C.3     1  UNL1        0.0903
     30 C         143.6884  137.2089  170.6387 C.1     1  UNL1       -0.0853
     31 C         142.9678  138.4660  170.2504 C.1     1  UNL1       -0.0628
@<TRIPOS>BOND
     1    29    30    1
     2    30    31    3
     3    31    23    1
     4    23    24   ar
     5    24    25   ar
     6    25    26   ar
     7    26    27   ar
     8    27     1    1
     9     1     2   ar
    10     2     3   ar
    11     3     4   ar
    12     4     5   ar
    13     5     6   ar
    14     5     7    1
    15     7     8    1
    16     8     9    1
    17     9    10    1
    18    10    11    1
    19    10    12    2
    20     7    13    1
    21    13    14    1
    22    14    15    1
    23    15    16    1
    24    13    17    1
    25    17    18    1
    26    17    19    1
    27    17    20    1
    28    27    28   ar
    29    28    23   ar
    30     6     1   ar
    31    12     7    1
    32    16    13    1
    33    20     4    1
    34    11    21    1
    35    11    22    1
@<TRIPOS>MOLECULE
*****
 31 35 0 0 0
SMALL
GASTEIGER

@<TRIPOS>ATOM
      1 C         139.8854  140.0651  167.3379 C.ar    1  UNL1        0.0015
      2 C         138.6003  139.2985  167.2339 C.ar    1  UNL1        0.0031
      3 C         138.1130  138.8294  165.8951 C.ar    1  UNL1        0.0366
      4 C         138.9109  139.1267  164.6602 C.ar    1  UNL1        0.1360
      5 C         140.1960  139.8933  164.7642 C.ar    1  UNL1        0.0357
      6 C         140.6833  140.3625  166.1030 C.ar    1  UNL1        0.0007
      7 C         140.9939  140.1907  163.5293 C.3     1  UNL1        0.1580
      8 C         141.8944  140.5610  162.3882 C.3     1  UNL1        0.2351
      9 O         143.0613  141.3207  162.9463 O.2     1  UNL1       -0.4478
     10 C         142.8820  141.4199  164.4322 C.2     1  UNL1        0.2770
     11 N         143.8162  142.0984  165.3896 N.pl3   1  UNL1       -0.3133
     12 N         141.6043  140.7215  164.7926 N.2     1  UNL1       -0.2202
     13 C         140.5067  139.7215  162.1905 C.3     1  UNL1        0.1141
     14 C         140.2841  139.6385  162.5350 C.3     1  UNL1        0.1501
     15 O         140.5181  139.7257  162.1729 O.3     1  UNL1       -0.3532
     16 C         140.2841  139.6385  162.5350 C.3     1  UNL1        0.1501
     17 C         139.2216  138.9549  162.0865 C.3     1  UNL1        0.1398
     18 C         138.0754  138.2007  161.4806 C.3     1  UNL1        0.0438
     19 C         139.6214  138.9903  160.6412 C.3     1  UNL1        0.0438
     20 O         138.4237  138.6576  163.3214 O.3     1  UNL1       -0.4826
     21 H         144.6346  142.5315  165.0553 H       1  UNL1        0.1466
     22 H         143.6110  142.1105  166.3524 H       1  UNL1        0.1466
     23 C         142.1713  141.7233  170.1264 C.ar    1  UNL1        0.0608
     24 C         141.3471  141.4727  171.3544 C.ar    1  UNL1        0.1071
     25 N         140.0358  140.7529  171.2436 N.ar    1  UNL1       -0.2417
     26 C         139.5485  140.2837  169.9047 C.ar    1  UNL1        0.0989
     27 C         140.3726  140.5343  168.6767 C.ar    1  UNL1        0.0198
     28 C         141.6841  141.2541  168.7876 C.ar    1  UNL1        0.0113
     29 C         146.1054  143.8825  170.4587 C.3     1  UNL1        0.0903
     30 C         144.7940  143.1627  170.3479 C.1     1  UNL1       -0.0853
     31 C         143.4826  142.4430  170.2371 C.1     1  UNL1       -0.0628
@<TRIPOS>BOND
     1    29    30    1
     2    30    31    3
     3    31    23    1
     4    23    24   ar
     5    24    25   ar
     6    25    26   ar
     7    26    27   ar
     8    27     1    1
     9     1     2   ar
    10     2     3   ar
    11     3     4   ar
    12     4     5   ar
    13     5     6   ar
    14     5     7    1
    15     7     8    1
    16     8     9    1
    17     9    10    1
    18    10    11    1
    19    10    12    2
    20     7    13    1
    21    13    14    1
    22    14    15    1
    23    15    16    1
    24    13    17    1
    25    17    18    1
    26    17    19    1
    27    17    20    1
    28    27    28   ar
    29    28    23   ar
    30     6     1   ar
    31    12     7    1
    32    16    13    1
    33    20     4    1
    34    11    21    1
    35    11    22    1
