@<TRIPOS>MOLECULE
*****
 48 50 0 0 0
SMALL
GASTEIGER

@<TRIPOS>ATOM
      1 C         140.1381  141.6891  165.6804 C.3     1  UNL1        0.1152
      2 C         139.6907  140.2621  165.5635 C.ar    1  UNL1        0.0046
      3 C         138.5977  139.7438  166.4505 C.ar    1  UNL1        0.0275
      4 C         138.1502  138.3169  166.3337 C.ar    1  UNL1        0.1429
      5 F         137.0572  137.7986  167.2206 F       1  UNL1       -0.2041
      6 C         138.7958  137.4083  165.3299 C.ar    1  UNL1        0.0667
      7 C         139.8889  137.9265  164.4430 C.ar    1  UNL1        0.1461
      8 C         140.3363  139.3534  164.5598 C.ar    1  UNL1        0.0349
      9 O         140.5345  137.0178  163.4392 O.3     1  UNL1       -0.4263
     10 C         141.1959  137.5938  162.2224 C.3     1  UNL1        0.4723
     11 F         142.5245  137.5337  162.9161 F       1  UNL1       -0.1579
     12 F         139.8673  137.6539  161.5287 F       1  UNL1       -0.1579
     13 C         141.8573  138.1698  161.0056 C.3     1  UNL1        0.4202
     14 F         141.1478  138.1462  159.6842 F       1  UNL1       -0.1876
     15 F         143.2283  138.7694  161.1101 F       1  UNL1       -0.1876
     16 C         140.5313  141.4489  167.1078 C.ar    1  UNL1        0.0792
     17 C         140.0962  142.4068  168.1770 C.ar    1  UNL1        0.0175
     18 C         140.4894  142.1666  169.6045 C.ar    1  UNL1        0.0142
     19 C         141.3176  140.9684  169.9628 C.ar    1  UNL1        0.0768
     20 CL        141.7108  140.7282  171.3904 Cl      1  UNL1       -0.0806
     21 C         141.7527  140.0105  168.8937 C.ar    1  UNL1        0.1098
     22 N         141.3595  140.2507  167.4662 N.ar    1  UNL1       -0.2454
     23 C         138.3846  142.4732  163.9310 C.2     1  UNL1        0.2399
     24 O         137.7557  142.6880  164.3712 O.2     1  UNL1       -0.2736
     25 N         139.7450  141.9293  164.2529 N.am    1  UNL1       -0.2978
     26 H         140.3798  141.7299  163.5273 H       1  UNL1        0.1500
     27 N         137.4325  144.0861  162.2725 N.3     1  UNL1       -0.3126
     28 C         137.9915  142.7134  162.5035 C.3     1  UNL1        0.1699
     29 H         137.4276  144.6035  163.1515 H       1  UNL1        0.1193
     30 H         136.4794  144.0097  161.9175 H       1  UNL1        0.1193
     31 C         138.1762  141.6303  161.4822 C.3     1  UNL1        0.2849
     32 O         137.4901  140.6551  162.3923 O.3     1  UNL1       -0.3715
     33 H         137.2295  141.1052  163.2111 H       1  UNL1        0.2109
     34 C         138.3610  140.5473  160.4611 C.3     1  UNL1        0.4292
     35 F         138.5457  139.4643  159.4399 F       1  UNL1       -0.1672
     36 F         139.8249  140.7695  160.2218 F       1  UNL1       -0.1672
     37 F         136.9086  140.1904  160.5768 F       1  UNL1       -0.1672
     38 C         138.8624  142.6055  160.5721 C.3     1  UNL1        0.4292
     39 F         139.5486  143.5807  159.6620 F       1  UNL1       -0.1672
     40 F         137.8348  142.5902  159.4796 F       1  UNL1       -0.1672
     41 F         140.0574  142.8585  161.4429 F       1  UNL1       -0.1672
     42 C         140.5856  143.1160  165.7972 C.3     1  UNL1        0.0543
     43 C         141.7133  143.6205  164.9465 C.ar    1  UNL1       -0.0199
     44 C         143.0704  142.9899  165.0492 C.ar    1  UNL1       -0.0042
     45 C         144.1981  143.4944  164.1985 C.ar    1  UNL1       -0.0003
     46 C         143.9687  144.6295  163.2451 C.ar    1  UNL1       -0.0000
     47 C         142.6116  145.2601  163.1425 C.ar    1  UNL1       -0.0003
     48 C         141.4839  144.7556  163.9932 C.ar    1  UNL1       -0.0042
@<TRIPOS>BOND
     1    27    28    1
     2    28    23    1
     3    23    24    2
     4    23    25   am
     5    25     1    1
     6     1    42    1
     7    42    43    1
     8    43    44   ar
     9    44    45   ar
    10    45    46   ar
    11    46    47   ar
    12    47    48   ar
    13     1     2    1
    14     2     3   ar
    15     3     4   ar
    16     4     5    1
    17     4     6   ar
    18     6     7   ar
    19     7     9    1
    20     9    10    1
    21    10    11    1
    22    10    12    1
    23    10    13    1
    24    13    14    1
    25    13    15    1
    26     7     8   ar
    27     1    16    1
    28    16    17   ar
    29    17    18   ar
    30    18    19   ar
    31    19    20    1
    32    19    21   ar
    33    21    22   ar
    34    28    31    1
    35    31    32    1
    36    31    34    1
    37    34    35    1
    38    34    36    1
    39    34    37    1
    40    31    38    1
    41    38    39    1
    42    38    40    1
    43    38    41    1
    44    48    43   ar
    45     8     2   ar
    46    22    16   ar
    47    27    29    1
    48    27    30    1
    49    25    26    1
    50    32    33    1
@<TRIPOS>MOLECULE
*****
 48 50 0 0 0
SMALL
GASTEIGER

@<TRIPOS>ATOM
      1 C         140.7436  140.3621  165.6148 C.3     1  UNL1        0.1152
      2 C         142.1493  139.8538  165.4892 C.ar    1  UNL1        0.0046
      3 C         142.6161  138.7185  166.3513 C.ar    1  UNL1        0.0275
      4 C         144.0218  138.2102  166.2258 C.ar    1  UNL1        0.1429
      5 F         144.4886  137.0749  167.0879 F       1  UNL1       -0.2041
      6 C         144.9606  138.8372  165.2382 C.ar    1  UNL1        0.0667
      7 C         144.4938  139.9725  164.3761 C.ar    1  UNL1        0.1461
      8 C         143.0881  140.4808  164.5016 C.ar    1  UNL1        0.0349
      9 O         145.4327  140.5996  163.3884 O.3     1  UNL1       -0.4263
     10 C         145.0097  141.8160  162.6195 C.3     1  UNL1        0.4723
     11 F         145.4579  142.6889  163.7541 F       1  UNL1       -0.1579
     12 F         144.5616  140.9432  161.4850 F       1  UNL1       -0.1579
     13 C         144.5868  143.0325  161.8507 C.3     1  UNL1        0.4202
     14 F         144.1450  142.9015  160.4232 F       1  UNL1       -0.1876
     15 F         144.6056  144.3802  162.5092 F       1  UNL1       -0.1876
     16 C         141.0048  140.7311  167.0450 C.ar    1  UNL1        0.0792
     17 C         141.9844  141.8190  167.3720 C.ar    1  UNL1        0.0175
     18 C         142.2456  142.1880  168.8023 C.ar    1  UNL1        0.0142
     19 C         141.5273  141.4691  169.9055 C.ar    1  UNL1        0.0768
     20 CL        141.7885  141.8380  171.3358 Cl      1  UNL1       -0.0806
     21 C         140.5477  140.3812  169.5785 C.ar    1  UNL1        0.1098
     22 N         140.2865  140.0122  168.1483 N.ar    1  UNL1       -0.2454
     23 C         139.9445  138.6341  163.8468 C.2     1  UNL1        0.2399
     24 O         139.7425  137.9954  164.2789 O.2     1  UNL1       -0.2736
     25 N         140.4824  139.9931  164.1846 N.am    1  UNL1       -0.2978
     26 H         140.6639  140.6428  163.4675 H       1  UNL1        0.1500
     27 N         138.3640  137.5791  162.2199 N.3     1  UNL1       -0.3126
     28 C         139.6833  138.2651  162.4166 C.3     1  UNL1        0.1699
     29 H         137.8878  137.4939  163.1179 H       1  UNL1        0.1193
     30 H         138.5188  136.6503  161.8277 H       1  UNL1        0.1193
     31 C         140.6979  138.5904  161.3607 C.3     1  UNL1        0.2849
     32 O         141.7912  138.0879  162.2565 O.3     1  UNL1       -0.3715
     33 H         141.4083  137.7813  163.0933 H       1  UNL1        0.2109
     34 C         141.7125  138.9157  160.3049 C.3     1  UNL1        0.4292
     35 F         142.7271  139.2410  159.2492 F       1  UNL1       -0.1672
     36 F         141.2948  140.3390  160.0823 F       1  UNL1       -0.1672
     37 F         142.2580  137.5216  160.3996 F       1  UNL1       -0.1672
     38 C         139.6047  139.0929  160.4650 C.3     1  UNL1        0.4292
     39 F         138.5115  139.5954  159.5692 F       1  UNL1       -0.1672
     40 F         139.2167  140.2787  161.2975 F       1  UNL1       -0.1672
     41 F         139.7263  138.0295  159.4140 F       1  UNL1       -0.1672
     42 C         139.3380  140.8703  165.7404 C.3     1  UNL1        0.0543
     43 C         138.9054  142.0791  164.9646 C.ar    1  UNL1       -0.0199
     44 C         139.4640  143.4288  165.3059 C.ar    1  UNL1       -0.0042
     45 C         139.0313  144.6375  164.5301 C.ar    1  UNL1       -0.0003
     46 C         138.0401  144.4966  163.4131 C.ar    1  UNL1       -0.0000
     47 C         137.4815  143.1469  163.0719 C.ar    1  UNL1       -0.0003
     48 C         137.9142  141.9382  163.8476 C.ar    1  UNL1       -0.0042
@<TRIPOS>BOND
     1    27    28    1
     2    28    23    1
     3    23    24    2
     4    23    25   am
     5    25     1    1
     6     1    42    1
     7    42    43    1
     8    43    44   ar
     9    44    45   ar
    10    45    46   ar
    11    46    47   ar
    12    47    48   ar
    13     1     2    1
    14     2     3   ar
    15     3     4   ar
    16     4     5    1
    17     4     6   ar
    18     6     7   ar
    19     7     9    1
    20     9    10    1
    21    10    11    1
    22    10    12    1
    23    10    13    1
    24    13    14    1
    25    13    15    1
    26     7     8   ar
    27     1    16    1
    28    16    17   ar
    29    17    18   ar
    30    18    19   ar
    31    19    20    1
    32    19    21   ar
    33    21    22   ar
    34    28    31    1
    35    31    32    1
    36    31    34    1
    37    34    35    1
    38    34    36    1
    39    34    37    1
    40    31    38    1
    41    38    39    1
    42    38    40    1
    43    38    41    1
    44    48    43   ar
    45     8     2   ar
    46    22    16   ar
    47    27    29    1
    48    27    30    1
    49    25    26    1
    50    32    33    1
@<TRIPOS>MOLECULE
*****
 48 50 0 0 0
SMALL
GASTEIGER

@<TRIPOS>ATOM
      1 C         140.6303  140.2233  165.4176 C.3     1  UNL1        0.1152
      2 C         142.0593  139.7670  165.4205 C.ar    1  UNL1        0.0046
      3 C         142.4691  138.5902  166.2556 C.ar    1  UNL1        0.0275
      4 C         143.8980  138.1339  166.2585 C.ar    1  UNL1        0.1429
      5 F         144.3078  136.9572  167.0936 F       1  UNL1       -0.2041
      6 C         144.9170  138.8543  165.4263 C.ar    1  UNL1        0.0667
      7 C         144.5072  140.0310  164.5913 C.ar    1  UNL1        0.1461
      8 C         143.0783  140.4874  164.5884 C.ar    1  UNL1        0.0349
      9 O         145.5263  140.7515  163.7591 O.3     1  UNL1       -0.4263
     10 C         145.1218  141.9439  162.9440 C.3     1  UNL1        0.4723
     11 F         144.8551  141.0503  161.7691 F       1  UNL1       -0.1579
     12 F         145.3884  142.8374  164.1189 F       1  UNL1       -0.1579
     13 C         144.7172  143.1363  162.1289 C.3     1  UNL1        0.4202
     14 F         144.5865  143.0172  160.6394 F       1  UNL1       -0.1876
     15 F         144.4433  144.4479  162.8034 F       1  UNL1       -0.1876
     16 C         140.4808  139.7461  164.0035 C.ar    1  UNL1        0.0792
     17 C         139.9129  138.3856  163.7271 C.ar    1  UNL1        0.0175
     18 C         139.7634  137.9084  162.3129 C.ar    1  UNL1        0.0142
     19 C         140.1819  138.7917  161.1751 C.ar    1  UNL1        0.0768
     20 CL        140.0324  138.3145  159.7608 Cl      1  UNL1       -0.0806
     21 C         140.7498  140.1522  161.4515 C.ar    1  UNL1        0.1098
     22 N         140.8993  140.6294  162.8656 N.ar    1  UNL1       -0.2454
     23 C         139.9726  140.0675  167.9263 C.2     1  UNL1        0.2399
     24 O         139.4305  139.4834  167.9476 O.2     1  UNL1       -0.2736
     25 N         140.7798  140.7005  166.8318 N.am    1  UNL1       -0.2978
     26 H         141.4077  141.4292  167.0416 H       1  UNL1        0.1500
     27 N         138.9792  140.1350  170.2212 N.3     1  UNL1       -0.3126
     28 C         140.1221  140.5447  169.3404 C.3     1  UNL1        0.1699
     29 H         138.3049  139.5982  169.6756 H       1  UNL1        0.1193
     30 H         138.5257  140.9670  170.5987 H       1  UNL1        0.1193
     31 C         141.3272  141.3443  169.7388 C.3     1  UNL1        0.2849
     32 O         142.2203  140.2790  169.1752 O.3     1  UNL1       -0.3715
     33 H         141.6781  139.5619  168.8108 H       1  UNL1        0.2109
     34 C         142.5322  142.1437  170.1371 C.3     1  UNL1        0.4292
     35 F         143.7372  142.9432  170.5354 F       1  UNL1       -0.1672
     36 F         142.0363  143.4746  169.6546 F       1  UNL1       -0.1672
     37 F         143.1799  140.9010  170.6721 F       1  UNL1       -0.1672
     38 C         140.4341  142.4095  170.3024 C.3     1  UNL1        0.4292
     39 F         139.5410  143.4748  170.8659 F       1  UNL1       -0.1672
     40 F         140.7473  142.1644  171.7486 F       1  UNL1       -0.1672
     41 F         139.9032  142.9144  168.9934 F       1  UNL1       -0.1672
     42 C         139.2014  140.6796  165.4147 C.3     1  UNL1        0.0543
     43 C         138.8435  142.0208  164.8461 C.ar    1  UNL1       -0.0199
     44 C         139.4747  143.2632  165.4010 C.ar    1  UNL1       -0.0042
     45 C         139.1168  144.6043  164.8324 C.ar    1  UNL1       -0.0003
     46 C         138.1277  144.7030  163.7090 C.ar    1  UNL1       -0.0000
     47 C         137.4966  143.4605  163.1542 C.ar    1  UNL1       -0.0003
     48 C         137.8545  142.1194  163.7227 C.ar    1  UNL1       -0.0042
@<TRIPOS>BOND
     1    27    28    1
     2    28    23    1
     3    23    24    2
     4    23    25   am
     5    25     1    1
     6     1    42    1
     7    42    43    1
     8    43    44   ar
     9    44    45   ar
    10    45    46   ar
    11    46    47   ar
    12    47    48   ar
    13     1     2    1
    14     2     3   ar
    15     3     4   ar
    16     4     5    1
    17     4     6   ar
    18     6     7   ar
    19     7     9    1
    20     9    10    1
    21    10    11    1
    22    10    12    1
    23    10    13    1
    24    13    14    1
    25    13    15    1
    26     7     8   ar
    27     1    16    1
    28    16    17   ar
    29    17    18   ar
    30    18    19   ar
    31    19    20    1
    32    19    21   ar
    33    21    22   ar
    34    28    31    1
    35    31    32    1
    36    31    34    1
    37    34    35    1
    38    34    36    1
    39    34    37    1
    40    31    38    1
    41    38    39    1
    42    38    40    1
    43    38    41    1
    44    48    43   ar
    45     8     2   ar
    46    22    16   ar
    47    27    29    1
    48    27    30    1
    49    25    26    1
    50    32    33    1
@<TRIPOS>MOLECULE
*****
 48 50 0 0 0
SMALL
GASTEIGER

@<TRIPOS>ATOM
      1 C         140.8407  140.3301  165.6849 C.3     1  UNL1        0.1152
      2 C         142.2553  139.8391  165.5968 C.ar    1  UNL1        0.0046
      3 C         142.7003  138.6792  166.4374 C.ar    1  UNL1        0.0275
      4 C         144.1149  138.1881  166.3494 C.ar    1  UNL1        0.1429
      5 F         144.5598  137.0282  167.1900 F       1  UNL1       -0.2041
      6 C         145.0845  138.8570  165.4207 C.ar    1  UNL1        0.0667
      7 C         144.6395  140.0169  164.5801 C.ar    1  UNL1        0.1461
      8 C         143.2250  140.5079  164.6682 C.ar    1  UNL1        0.0349
      9 O         145.6092  140.6857  163.6515 O.3     1  UNL1       -0.4263
     10 C         145.1753  141.8704  162.8402 C.3     1  UNL1        0.4723
     11 F         145.5330  142.7804  163.9777 F       1  UNL1       -0.1579
     12 F         144.8177  140.9604  161.7027 F       1  UNL1       -0.1579
     13 C         144.7414  143.0551  162.0289 C.3     1  UNL1        0.4202
     14 F         144.4221  144.3534  162.7089 F       1  UNL1       -0.1876
     15 F         144.6268  142.9415  160.5375 F       1  UNL1       -0.1876
     16 C         141.0629  140.7130  167.1181 C.ar    1  UNL1        0.0792
     17 C         140.2434  140.0751  168.2005 C.ar    1  UNL1        0.0175
     18 C         140.4656  140.4580  169.6337 C.ar    1  UNL1        0.0142
     19 C         141.5072  141.4787  169.9845 C.ar    1  UNL1        0.0768
     20 CL        141.7295  141.8616  171.4177 Cl      1  UNL1       -0.0806
     21 C         142.3267  142.1166  168.9021 C.ar    1  UNL1        0.1098
     22 N         142.1045  141.7338  167.4689 N.ar    1  UNL1       -0.2454
     23 C         140.3930  138.5102  163.8856 C.2     1  UNL1        0.2399
     24 O         140.3581  137.8314  164.3022 O.2     1  UNL1       -0.2736
     25 N         140.6185  139.9473  164.2517 N.am    1  UNL1       -0.2978
     26 H         140.6207  140.6392  163.5514 H       1  UNL1        0.1500
     27 N         141.2024  137.1691  161.9350 N.3     1  UNL1       -0.3126
     28 C         140.1709  138.1273  162.4524 C.3     1  UNL1        0.1699
     29 H         141.8717  136.9578  162.6752 H       1  UNL1        0.1193
     30 H         141.6911  137.5897  161.1446 H       1  UNL1        0.1193
     31 C         139.0076  138.6967  161.6957 C.3     1  UNL1        0.2849
     32 O         138.1337  138.5133  162.9010 O.3     1  UNL1       -0.3715
     33 H         138.6546  138.1267  163.6222 H       1  UNL1        0.2109
     34 C         137.8443  139.2660  160.9390 C.3     1  UNL1        0.4292
     35 F         136.6810  139.8353  160.1823 F       1  UNL1       -0.1672
     36 F         138.5436  140.4875  160.4206 F       1  UNL1       -0.1672
     37 F         136.9968  138.1052  161.3683 F       1  UNL1       -0.1672
     38 C         139.8813  138.8801  160.4903 C.3     1  UNL1        0.4292
     39 F         140.7552  139.0635  159.2850 F       1  UNL1       -0.1672
     40 F         139.2104  137.8585  159.6209 F       1  UNL1       -0.1672
     41 F         140.7654  139.9466  161.0659 F       1  UNL1       -0.1672
     42 C         139.4261  140.8212  165.7730 C.3     1  UNL1        0.0543
     43 C         139.0035  142.0339  164.9979 C.ar    1  UNL1       -0.0199
     44 C         138.0417  141.8961  163.8552 C.ar    1  UNL1       -0.0042
     45 C         137.6191  143.1088  163.0802 C.ar    1  UNL1       -0.0003
     46 C         138.1584  144.4594  163.4479 C.ar    1  UNL1       -0.0000
     47 C         139.1202  144.5972  164.5906 C.ar    1  UNL1       -0.0003
     48 C         139.5427  143.3845  165.3656 C.ar    1  UNL1       -0.0042
@<TRIPOS>BOND
     1    27    28    1
     2    28    23    1
     3    23    24    2
     4    23    25   am
     5    25     1    1
     6     1    42    1
     7    42    43    1
     8    43    44   ar
     9    44    45   ar
    10    45    46   ar
    11    46    47   ar
    12    47    48   ar
    13     1     2    1
    14     2     3   ar
    15     3     4   ar
    16     4     5    1
    17     4     6   ar
    18     6     7   ar
    19     7     9    1
    20     9    10    1
    21    10    11    1
    22    10    12    1
    23    10    13    1
    24    13    14    1
    25    13    15    1
    26     7     8   ar
    27     1    16    1
    28    16    17   ar
    29    17    18   ar
    30    18    19   ar
    31    19    20    1
    32    19    21   ar
    33    21    22   ar
    34    28    31    1
    35    31    32    1
    36    31    34    1
    37    34    35    1
    38    34    36    1
    39    34    37    1
    40    31    38    1
    41    38    39    1
    42    38    40    1
    43    38    41    1
    44    48    43   ar
    45     8     2   ar
    46    22    16   ar
    47    27    29    1
    48    27    30    1
    49    25    26    1
    50    32    33    1
@<TRIPOS>MOLECULE
*****
 48 50 0 0 0
SMALL
GASTEIGER

@<TRIPOS>ATOM
      1 C         140.6056  142.3625  160.4034 C.3     1  UNL1        0.1152
      2 C         141.2745  141.0801  160.0055 C.ar    1  UNL1        0.0046
      3 C         142.0264  140.9969  158.7102 C.ar    1  UNL1        0.0275
      4 C         142.6952  139.7146  158.3123 C.ar    1  UNL1        0.1429
      5 F         143.4472  139.6315  157.0170 F       1  UNL1       -0.2041
      6 C         142.6121  138.5156  159.2096 C.ar    1  UNL1        0.0667
      7 C         141.8602  138.5987  160.5049 C.ar    1  UNL1        0.1461
      8 C         141.1914  139.8810  160.9028 C.ar    1  UNL1        0.0349
      9 O         141.7771  137.3996  161.4022 O.3     1  UNL1       -0.4263
     10 C         141.6475  137.5804  162.8856 C.3     1  UNL1        0.4723
     11 F         140.2087  137.1628  162.8107 F       1  UNL1       -0.1579
     12 F         143.0862  137.9979  162.9605 F       1  UNL1       -0.1579
     13 C         141.5178  137.7612  164.3690 C.3     1  UNL1        0.4202
     14 F         140.1749  137.6351  165.0254 F       1  UNL1       -0.1876
     15 F         142.7310  138.0682  165.1960 F       1  UNL1       -0.1876
     16 C         139.6108  142.1876  159.2944 C.ar    1  UNL1        0.0792
     17 C         139.5017  143.2231  158.2146 C.ar    1  UNL1        0.0175
     18 C         138.5069  143.0482  157.1056 C.ar    1  UNL1        0.0142
     19 C         137.6213  141.8380  157.0764 C.ar    1  UNL1        0.0768
     20 CL        136.6264  141.6631  155.9674 Cl      1  UNL1       -0.0806
     21 C         137.7304  140.8025  158.1562 C.ar    1  UNL1        0.1098
     22 N         138.7251  140.9774  159.2652 N.ar    1  UNL1       -0.2454
     23 C         142.7543  143.4806  161.3430 C.2     1  UNL1        0.2399
     24 O         142.9959  143.9598  160.7536 O.2     1  UNL1       -0.2736
     25 N         141.6003  142.5373  161.5123 N.am    1  UNL1       -0.2978
     26 H         141.4959  142.0329  162.3514 H       1  UNL1        0.1500
     27 N         144.0389  145.0949  162.7579 N.3     1  UNL1       -0.3126
     28 C         143.7491  143.6554  162.4520 C.3     1  UNL1        0.1699
     29 H         143.4906  145.6913  162.1381 H       1  UNL1        0.1193
     30 H         145.0320  145.2794  162.6163 H       1  UNL1        0.1193
     31 C         144.3396  142.4526  163.1264 C.3     1  UNL1        0.2849
     32 O         144.6977  141.8779  161.7879 O.3     1  UNL1       -0.3715
     33 H         144.4150  142.4873  161.0882 H       1  UNL1        0.2109
     34 C         144.9300  141.2499  163.8007 C.3     1  UNL1        0.4292
     35 F         145.5204  140.0471  164.4751 F       1  UNL1       -0.1672
     36 F         143.6652  140.7600  164.4411 F       1  UNL1       -0.1672
     37 F         146.2769  141.5957  163.2383 F       1  UNL1       -0.1672
     38 C         143.9814  143.0272  164.4648 C.3     1  UNL1        0.4292
     39 F         143.6233  143.6019  165.8034 F       1  UNL1       -0.1672
     40 F         142.4932  143.0104  164.2788 F       1  UNL1       -0.1672
     41 F         145.3825  143.1841  164.9773 F       1  UNL1       -0.1672
     42 C         139.9367  143.6447  160.8012 C.3     1  UNL1        0.0543
     43 C         139.2579  143.7544  162.1344 C.ar    1  UNL1       -0.0199
     44 C         138.1311  142.8268  162.4808 C.ar    1  UNL1       -0.0042
     45 C         137.4523  142.9365  163.8138 C.ar    1  UNL1       -0.0003
     46 C         137.9003  143.9737  164.8005 C.ar    1  UNL1       -0.0000
     47 C         139.0270  144.9012  164.4541 C.ar    1  UNL1       -0.0003
     48 C         139.7058  144.7916  163.1211 C.ar    1  UNL1       -0.0042
@<TRIPOS>BOND
     1    27    28    1
     2    28    23    1
     3    23    24    2
     4    23    25   am
     5    25     1    1
     6     1    42    1
     7    42    43    1
     8    43    44   ar
     9    44    45   ar
    10    45    46   ar
    11    46    47   ar
    12    47    48   ar
    13     1     2    1
    14     2     3   ar
    15     3     4   ar
    16     4     5    1
    17     4     6   ar
    18     6     7   ar
    19     7     9    1
    20     9    10    1
    21    10    11    1
    22    10    12    1
    23    10    13    1
    24    13    14    1
    25    13    15    1
    26     7     8   ar
    27     1    16    1
    28    16    17   ar
    29    17    18   ar
    30    18    19   ar
    31    19    20    1
    32    19    21   ar
    33    21    22   ar
    34    28    31    1
    35    31    32    1
    36    31    34    1
    37    34    35    1
    38    34    36    1
    39    34    37    1
    40    31    38    1
    41    38    39    1
    42    38    40    1
    43    38    41    1
    44    48    43   ar
    45     8     2   ar
    46    22    16   ar
    47    27    29    1
    48    27    30    1
    49    25    26    1
    50    32    33    1
@<TRIPOS>MOLECULE
*****
 48 50 0 0 0
SMALL
GASTEIGER

@<TRIPOS>ATOM
      1 C         140.5295  140.2550  160.2522 C.3     1  UNL1        0.1152
      2 C         141.6090  141.1466  159.7138 C.ar    1  UNL1        0.0046
      3 C         141.5265  141.6582  158.3061 C.ar    1  UNL1        0.0275
      4 C         142.6058  142.5498  157.7677 C.ar    1  UNL1        0.1429
      5 F         142.5233  143.0614  156.3600 F       1  UNL1       -0.2041
      6 C         143.7678  142.9297  158.6369 C.ar    1  UNL1        0.0667
      7 C         143.8503  142.4181  160.0445 C.ar    1  UNL1        0.1461
      8 C         142.7709  141.5266  160.5830 C.ar    1  UNL1        0.0349
      9 O         145.0123  142.7982  160.9137 O.3     1  UNL1       -0.4263
     10 C         144.8787  142.7515  162.4070 C.3     1  UNL1        0.4723
     11 F         145.5117  141.3917  162.4211 F       1  UNL1       -0.1579
     12 F         144.2457  144.1113  162.3928 F       1  UNL1       -0.1579
     13 C         144.7451  142.7049  163.9003 C.3     1  UNL1        0.4202
     14 F         144.8525  141.3945  164.6223 F       1  UNL1       -0.1876
     15 F         144.5042  143.9687  164.6716 F       1  UNL1       -0.1876
     16 C         140.8451  139.2361  159.1976 C.ar    1  UNL1        0.0792
     17 C         139.7817  138.8002  158.2337 C.ar    1  UNL1        0.0175
     18 C         140.0974  137.7813  157.1791 C.ar    1  UNL1        0.0142
     19 C         141.4765  137.1982  157.0885 C.ar    1  UNL1        0.0768
     20 CL        141.7922  136.1792  156.0339 Cl      1  UNL1       -0.0806
     21 C         142.5399  137.6341  158.0524 C.ar    1  UNL1        0.1098
     22 N         142.2242  138.6530  159.1070 N.ar    1  UNL1       -0.2454
     23 C         139.1786  142.3277  161.0456 C.2     1  UNL1        0.2399
     24 O         138.7073  142.4994  160.4261 O.2     1  UNL1       -0.2736
     25 N         140.2138  141.2739  161.3068 N.am    1  UNL1       -0.2978
     26 H         140.6861  141.2511  162.1703 H       1  UNL1        0.1500
     27 N         137.3919  143.4884  162.3565 N.3     1  UNL1       -0.3126
     28 C         138.8630  143.3466  162.1002 C.3     1  UNL1        0.1699
     29 H         136.8779  142.8495  161.7498 H       1  UNL1        0.1193
     30 H         137.1038  144.4474  162.1622 H       1  UNL1        0.1193
     31 C         139.9732  144.0972  162.7741 C.3     1  UNL1        0.2849
     32 O         140.6234  144.3309  161.4426 O.3     1  UNL1       -0.3715
     33 H         140.0867  143.9236  160.7448 H       1  UNL1        0.2109
     34 C         141.0834  144.8478  163.4479 C.3     1  UNL1        0.4292
     35 F         142.1936  145.5984  164.1217 F       1  UNL1       -0.1672
     36 F         141.4904  143.7595  164.3965 F       1  UNL1       -0.1672
     37 F         140.8097  146.0365  162.5748 F       1  UNL1       -0.1672
     38 C         139.3231  143.8635  164.1055 C.3     1  UNL1        0.4292
     39 F         138.6730  143.6298  165.4370 F       1  UNL1       -0.1672
     40 F         139.0098  145.2983  164.4103 F       1  UNL1       -0.1672
     41 F         139.4780  142.3716  164.1252 F       1  UNL1       -0.1672
     42 C         139.4501  139.3634  160.7906 C.3     1  UNL1        0.0543
     43 C         139.6189  138.7045  162.1275 C.ar    1  UNL1       -0.0199
     44 C         138.5917  138.9115  163.2008 C.ar    1  UNL1       -0.0042
     45 C         138.7606  138.2525  164.5376 C.ar    1  UNL1       -0.0003
     46 C         139.9567  137.3866  164.8012 C.ar    1  UNL1       -0.0000
     47 C         140.9839  137.1796  163.7280 C.ar    1  UNL1       -0.0003
     48 C         140.8150  137.8385  162.3911 C.ar    1  UNL1       -0.0042
@<TRIPOS>BOND
     1    27    28    1
     2    28    23    1
     3    23    24    2
     4    23    25   am
     5    25     1    1
     6     1    42    1
     7    42    43    1
     8    43    44   ar
     9    44    45   ar
    10    45    46   ar
    11    46    47   ar
    12    47    48   ar
    13     1     2    1
    14     2     3   ar
    15     3     4   ar
    16     4     5    1
    17     4     6   ar
    18     6     7   ar
    19     7     9    1
    20     9    10    1
    21    10    11    1
    22    10    12    1
    23    10    13    1
    24    13    14    1
    25    13    15    1
    26     7     8   ar
    27     1    16    1
    28    16    17   ar
    29    17    18   ar
    30    18    19   ar
    31    19    20    1
    32    19    21   ar
    33    21    22   ar
    34    28    31    1
    35    31    32    1
    36    31    34    1
    37    34    35    1
    38    34    36    1
    39    34    37    1
    40    31    38    1
    41    38    39    1
    42    38    40    1
    43    38    41    1
    44    48    43   ar
    45     8     2   ar
    46    22    16   ar
    47    27    29    1
    48    27    30    1
    49    25    26    1
    50    32    33    1
@<TRIPOS>MOLECULE
*****
 48 50 0 0 0
SMALL
GASTEIGER

@<TRIPOS>ATOM
      1 C         139.9856  141.9866  161.0563 C.3     1  UNL1        0.1152
      2 C         141.2043  141.2463  160.5906 C.ar    1  UNL1        0.0046
      3 C         141.2240  140.6147  159.2302 C.ar    1  UNL1        0.0275
      4 C         142.4426  139.8745  158.7645 C.ar    1  UNL1        0.1429
      5 F         142.4623  139.2429  157.4041 F       1  UNL1       -0.2041
      6 C         143.6416  139.7658  159.6592 C.ar    1  UNL1        0.0667
      7 C         143.6219  140.3974  161.0196 C.ar    1  UNL1        0.1461
      8 C         142.4033  141.1376  161.4853 C.ar    1  UNL1        0.0349
      9 O         144.8210  140.2887  161.9144 O.3     1  UNL1       -0.4263
     10 C         144.6645  139.7920  163.3211 C.3     1  UNL1        0.4723
     11 F         145.2894  141.0545  163.8364 F       1  UNL1       -0.1579
     12 F         144.0396  138.5295  162.8058 F       1  UNL1       -0.1579
     13 C         144.5081  139.2953  164.7277 C.3     1  UNL1        0.4202
     14 F         145.6604  138.6310  165.4211 F       1  UNL1       -0.1876
     15 F         143.1992  139.4629  165.4411 F       1  UNL1       -0.1876
     16 C         140.1967  143.0106  159.9808 C.ar    1  UNL1        0.0792
     17 C         141.2982  144.0202  160.1122 C.ar    1  UNL1        0.0175
     18 C         141.5093  145.0442  159.0367 C.ar    1  UNL1        0.0142
     19 C         140.6189  145.0587  157.8297 C.ar    1  UNL1        0.0768
     20 CL        140.8300  146.0827  156.7541 Cl      1  UNL1       -0.0806
     21 C         139.5173  144.0491  157.6982 C.ar    1  UNL1        0.1098
     22 N         139.3062  143.0251  158.7737 N.ar    1  UNL1       -0.2454
     23 C         138.8502  139.8051  161.8944 C.2     1  UNL1        0.2399
     24 O         138.3982  139.5744  161.2796 O.2     1  UNL1       -0.2736
     25 N         139.7744  140.9625  162.1318 N.am    1  UNL1       -0.2978
     26 H         140.2424  141.0501  162.9935 H       1  UNL1        0.1500
     27 N         138.3150  137.4204  162.4281 N.3     1  UNL1       -0.3126
     28 C         138.6391  138.7811  162.9699 C.3     1  UNL1        0.1699
     29 H         138.3004  137.4549  161.4088 H       1  UNL1        0.1193
     30 H         137.4006  137.1267  162.7715 H       1  UNL1        0.1193
     31 C         138.7608  139.1728  164.4128 C.3     1  UNL1        0.2849
     32 O         137.7925  140.2964  164.1894 O.3     1  UNL1       -0.3715
     33 H         137.5095  140.2998  163.2616 H       1  UNL1        0.2109
     34 C         138.8825  139.5645  165.8556 C.3     1  UNL1        0.4292
     35 F         139.0042  139.9562  167.2983 F       1  UNL1       -0.1672
     36 F         137.5041  139.1474  166.2751 F       1  UNL1       -0.1672
     37 F         140.2863  140.0328  165.6101 F       1  UNL1       -0.1672
     38 C         139.7291  138.0492  164.6361 C.3     1  UNL1        0.4292
     39 F         140.6975  136.9256  164.8595 F       1  UNL1       -0.1672
     40 F         138.8390  137.2106  165.5045 F       1  UNL1       -0.1672
     41 F         140.8554  138.6140  163.8221 F       1  UNL1       -0.1672
     42 C         138.7669  142.7268  161.5219 C.3     1  UNL1        0.0543
     43 C         138.7820  143.4423  162.8402 C.ar    1  UNL1       -0.0199
     44 C         140.0765  143.9491  163.4036 C.ar    1  UNL1       -0.0042
     45 C         140.0916  144.6646  164.7219 C.ar    1  UNL1       -0.0003
     46 C         138.8122  144.8733  165.4767 C.ar    1  UNL1       -0.0000
     47 C         137.5178  144.3665  164.9132 C.ar    1  UNL1       -0.0003
     48 C         137.5027  143.6510  163.5950 C.ar    1  UNL1       -0.0042
@<TRIPOS>BOND
     1    27    28    1
     2    28    23    1
     3    23    24    2
     4    23    25   am
     5    25     1    1
     6     1    42    1
     7    42    43    1
     8    43    44   ar
     9    44    45   ar
    10    45    46   ar
    11    46    47   ar
    12    47    48   ar
    13     1     2    1
    14     2     3   ar
    15     3     4   ar
    16     4     5    1
    17     4     6   ar
    18     6     7   ar
    19     7     9    1
    20     9    10    1
    21    10    11    1
    22    10    12    1
    23    10    13    1
    24    13    14    1
    25    13    15    1
    26     7     8   ar
    27     1    16    1
    28    16    17   ar
    29    17    18   ar
    30    18    19   ar
    31    19    20    1
    32    19    21   ar
    33    21    22   ar
    34    28    31    1
    35    31    32    1
    36    31    34    1
    37    34    35    1
    38    34    36    1
    39    34    37    1
    40    31    38    1
    41    38    39    1
    42    38    40    1
    43    38    41    1
    44    48    43   ar
    45     8     2   ar
    46    22    16   ar
    47    27    29    1
    48    27    30    1
    49    25    26    1
    50    32    33    1
@<TRIPOS>MOLECULE
*****
 48 50 0 0 0
SMALL
GASTEIGER

@<TRIPOS>ATOM
      1 C         141.8953  142.2969  160.3590 C.3     1  UNL1        0.1152
      2 C         141.0574  141.1136  159.9744 C.ar    1  UNL1        0.0046
      3 C         140.3430  141.0974  158.6555 C.ar    1  UNL1        0.0275
      4 C         139.5052  139.9142  158.2709 C.ar    1  UNL1        0.1429
      5 F         138.7908  139.8980  156.9520 F       1  UNL1       -0.2041
      6 C         139.3818  138.7472  159.2051 C.ar    1  UNL1        0.0667
      7 C         140.0962  138.7634  160.5239 C.ar    1  UNL1        0.1461
      8 C         140.9340  139.9466  160.9086 C.ar    1  UNL1        0.0349
      9 O         139.9728  137.5963  161.4581 O.3     1  UNL1       -0.4263
     10 C         139.8060  137.8286  162.9306 C.3     1  UNL1        0.4723
     11 F         141.0960  137.1086  163.1903 F       1  UNL1       -0.1579
     12 F         138.5160  138.5487  162.6709 F       1  UNL1       -0.1579
     13 C         139.6392  138.0609  164.4030 C.3     1  UNL1        0.4202
     14 F         138.6660  137.2320  165.1877 F       1  UNL1       -0.1876
     15 F         140.4457  139.1223  165.0910 F       1  UNL1       -0.1876
     16 C         142.8418  141.9917  159.2361 C.ar    1  UNL1        0.0792
     17 C         143.1243  143.0292  158.1903 C.ar    1  UNL1        0.0175
     18 C         144.0709  142.7238  157.0674 C.ar    1  UNL1        0.0142
     19 C         144.7349  141.3810  156.9904 C.ar    1  UNL1        0.0768
     20 CL        145.6815  141.0757  155.8675 Cl      1  UNL1       -0.0806
     21 C         144.4524  140.3435  158.0362 C.ar    1  UNL1        0.1098
     22 N         143.5059  140.6488  159.1591 N.ar    1  UNL1       -0.2454
     23 C         139.7837  143.5187  161.2525 C.2     1  UNL1        0.2399
     24 O         139.5142  143.9246  160.6215 O.2     1  UNL1       -0.2736
     25 N         140.9488  142.6022  161.4818 N.am    1  UNL1       -0.2978
     26 H         141.0922  142.2010  162.3694 H       1  UNL1        0.1500
     27 N         138.3418  145.2397  162.3558 N.3     1  UNL1       -0.3126
     28 C         138.8371  143.8240  162.3753 C.3     1  UNL1        0.1699
     29 H         138.7539  145.7332  161.5640 H       1  UNL1        0.1193
     30 H         138.6089  145.7054  163.2231 H       1  UNL1        0.1193
     31 C         138.4820  142.7569  163.3680 C.3     1  UNL1        0.2849
     32 O         138.2726  141.7832  162.2463 O.3     1  UNL1       -0.3715
     33 H         138.4440  142.2239  161.3993 H       1  UNL1        0.2109
     34 C         138.1268  141.6899  164.3605 C.3     1  UNL1        0.4292
     35 F         137.7716  140.6228  165.3531 F       1  UNL1       -0.1672
     36 F         139.3067  141.8828  165.2663 F       1  UNL1       -0.1672
     37 F         136.8944  141.3644  163.5697 F       1  UNL1       -0.1672
     38 C         138.6913  143.7306  164.4896 C.3     1  UNL1        0.4292
     39 F         138.9008  144.7043  165.6113 F       1  UNL1       -0.1672
     40 F         137.2582  143.8216  164.9227 F       1  UNL1       -0.1672
     41 F         140.1757  143.8770  164.3300 F       1  UNL1       -0.1672
     42 C         142.7331  143.4802  160.7435 C.3     1  UNL1        0.0543
     43 C         143.3335  143.5598  162.1159 C.ar    1  UNL1       -0.0199
     44 C         144.1356  142.4111  162.6515 C.ar    1  UNL1       -0.0042
     45 C         144.7359  142.4908  164.0238 C.ar    1  UNL1       -0.0003
     46 C         144.5340  143.7193  164.8605 C.ar    1  UNL1       -0.0000
     47 C         143.7319  144.8680  164.3249 C.ar    1  UNL1       -0.0003
     48 C         143.1316  144.7883  162.9526 C.ar    1  UNL1       -0.0042
@<TRIPOS>BOND
     1    27    28    1
     2    28    23    1
     3    23    24    2
     4    23    25   am
     5    25     1    1
     6     1    42    1
     7    42    43    1
     8    43    44   ar
     9    44    45   ar
    10    45    46   ar
    11    46    47   ar
    12    47    48   ar
    13     1     2    1
    14     2     3   ar
    15     3     4   ar
    16     4     5    1
    17     4     6   ar
    18     6     7   ar
    19     7     9    1
    20     9    10    1
    21    10    11    1
    22    10    12    1
    23    10    13    1
    24    13    14    1
    25    13    15    1
    26     7     8   ar
    27     1    16    1
    28    16    17   ar
    29    17    18   ar
    30    18    19   ar
    31    19    20    1
    32    19    21   ar
    33    21    22   ar
    34    28    31    1
    35    31    32    1
    36    31    34    1
    37    34    35    1
    38    34    36    1
    39    34    37    1
    40    31    38    1
    41    38    39    1
    42    38    40    1
    43    38    41    1
    44    48    43   ar
    45     8     2   ar
    46    22    16   ar
    47    27    29    1
    48    27    30    1
    49    25    26    1
    50    32    33    1
@<TRIPOS>MOLECULE
*****
 48 50 0 0 0
SMALL
GASTEIGER

@<TRIPOS>ATOM
      1 C         140.7556  141.4914  165.3282 C.3     1  UNL1        0.1152
      2 C         142.1778  141.7745  164.9442 C.ar    1  UNL1        0.0046
      3 C         142.9301  142.8835  165.6181 C.ar    1  UNL1        0.0275
      4 C         144.3522  143.1666  165.2341 C.ar    1  UNL1        0.1429
      5 F         145.1045  144.2756  165.9081 F       1  UNL1       -0.2041
      6 C         145.0220  142.3407  164.1762 C.ar    1  UNL1        0.0667
      7 C         144.2697  141.2317  163.5023 C.ar    1  UNL1        0.1461
      8 C         142.8476  140.9486  163.8863 C.ar    1  UNL1        0.0349
      9 O         144.9396  140.4058  162.4444 O.3     1  UNL1       -0.4263
     10 C         144.1130  139.6738  161.4290 C.3     1  UNL1        0.4723
     11 F         144.2807  138.4033  162.2085 F       1  UNL1       -0.1579
     12 F         143.9453  140.9443  160.6496 F       1  UNL1       -0.1579
     13 C         143.2865  138.9418  160.4137 C.3     1  UNL1        0.4202
     14 F         143.1156  139.5093  159.0357 F       1  UNL1       -0.1876
     15 F         142.6307  137.6423  160.7763 F       1  UNL1       -0.1876
     16 C         141.1884  141.2342  166.7411 C.ar    1  UNL1        0.0792
     17 C         142.0893  140.0755  167.0505 C.ar    1  UNL1        0.0175
     18 C         142.5221  139.8183  168.4635 C.ar    1  UNL1        0.0142
     19 C         142.0540  140.7199  169.5672 C.ar    1  UNL1        0.0768
     20 CL        142.4868  140.4627  170.9802 Cl      1  UNL1       -0.0806
     21 C         141.1531  141.8786  169.2578 C.ar    1  UNL1        0.1098
     22 N         140.7203  142.1358  167.8449 N.ar    1  UNL1       -0.2454
     23 C         139.7160  143.0697  163.5453 C.2     1  UNL1        0.2399
     24 O         139.5491  143.7354  163.9509 O.2     1  UNL1       -0.2736
     25 N         140.3229  141.7486  163.9152 N.am    1  UNL1       -0.2978
     26 H         140.4371  141.0505  163.2306 H       1  UNL1        0.1500
     27 N         137.8876  143.8680  162.0362 N.3     1  UNL1       -0.3126
     28 C         139.2832  143.3269  162.1324 C.3     1  UNL1        0.1699
     29 H         137.4928  143.9588  162.9723 H       1  UNL1        0.1193
     30 H         137.3129  143.2304  161.4852 H       1  UNL1        0.1193
     31 C         140.2208  143.0409  160.9969 C.3     1  UNL1        0.2849
     32 O         141.3435  143.6737  161.7645 O.3     1  UNL1       -0.3715
     33 H         141.0139  143.9845  162.6222 H       1  UNL1        0.2109
     34 C         141.1584  142.7549  159.8615 C.3     1  UNL1        0.4292
     35 F         142.0960  142.4689  158.7262 F       1  UNL1       -0.1672
     36 F         140.8913  141.2817  159.7706 F       1  UNL1       -0.1672
     37 F         141.5427  144.2041  159.8138 F       1  UNL1       -0.1672
     38 C         139.0983  142.4080  160.2293 C.3     1  UNL1        0.4292
     39 F         137.9756  141.7751  159.4616 F       1  UNL1       -0.1672
     40 F         138.9114  141.2195  161.1250 F       1  UNL1       -0.1672
     41 F         139.0114  143.4423  159.1463 F       1  UNL1       -0.1672
     42 C         139.3336  141.2084  165.7122 C.3     1  UNL1        0.0543
     43 C         138.8649  139.7913  165.8618 C.ar    1  UNL1       -0.0199
     44 C         139.3383  138.7396  164.9028 C.ar    1  UNL1       -0.0042
     45 C         138.8697  137.3226  165.0525 C.ar    1  UNL1       -0.0003
     46 C         137.9277  136.9573  166.1611 C.ar    1  UNL1       -0.0000
     47 C         137.4543  138.0090  167.1202 C.ar    1  UNL1       -0.0003
     48 C         137.9229  139.4260  166.9705 C.ar    1  UNL1       -0.0042
@<TRIPOS>BOND
     1    27    28    1
     2    28    23    1
     3    23    24    2
     4    23    25   am
     5    25     1    1
     6     1    42    1
     7    42    43    1
     8    43    44   ar
     9    44    45   ar
    10    45    46   ar
    11    46    47   ar
    12    47    48   ar
    13     1     2    1
    14     2     3   ar
    15     3     4   ar
    16     4     5    1
    17     4     6   ar
    18     6     7   ar
    19     7     9    1
    20     9    10    1
    21    10    11    1
    22    10    12    1
    23    10    13    1
    24    13    14    1
    25    13    15    1
    26     7     8   ar
    27     1    16    1
    28    16    17   ar
    29    17    18   ar
    30    18    19   ar
    31    19    20    1
    32    19    21   ar
    33    21    22   ar
    34    28    31    1
    35    31    32    1
    36    31    34    1
    37    34    35    1
    38    34    36    1
    39    34    37    1
    40    31    38    1
    41    38    39    1
    42    38    40    1
    43    38    41    1
    44    48    43   ar
    45     8     2   ar
    46    22    16   ar
    47    27    29    1
    48    27    30    1
    49    25    26    1
    50    32    33    1
