@<TRIPOS>MOLECULE
*****
 36 40 0 0 0
SMALL
GASTEIGER

@<TRIPOS>ATOM
      1 N         138.0794  140.0386  162.4271 N.3     1  UNL1       -0.2689
      2 C         137.7226  140.7483  163.6994 C.3     1  UNL1        0.0737
      3 C         137.6106  142.2440  163.7179 C.3     1  UNL1        0.0356
      4 C         137.8553  143.0299  162.4639 C.3     1  UNL1        0.0843
      5 C         138.2121  142.3201  161.1915 C.3     1  UNL1        0.1407
      6 O         138.4568  143.1061  159.9375 O.3     1  UNL1       -0.3817
      7 C         138.3241  140.8244  161.1731 C.3     1  UNL1        0.1031
      8 H         138.3446  144.0518  160.1216 H       1  UNL1        0.2105
      9 N         137.7433  144.5256  162.4823 N.3     1  UNL1       -0.2915
     10 H         137.1005  144.7635  163.2376 H       1  UNL1        0.1236
     11 C         138.9698  145.3672  162.6763 C.3     1  UNL1        0.1153
     12 C         140.3305  144.7446  162.5737 C.ar    1  UNL1        0.0782
     13 C         141.0307  144.2642  163.8102 C.ar    1  UNL1        0.0562
     14 C         142.3915  143.6416  163.7076 C.ar    1  UNL1        0.1752
     15 C         143.0522  143.4993  162.3684 C.ar    1  UNL1        0.1914
     16 C         142.3520  143.9798  161.1319 C.ar    1  UNL1        0.1384
     17 N         140.9911  144.6024  161.2345 N.ar    1  UNL1       -0.2434
     18 O         144.4130  142.8767  162.2658 O.3     1  UNL1       -0.4668
     19 C         145.1131  142.3963  163.5023 C.3     1  UNL1        0.2527
     20 C         144.4525  142.5385  164.8414 C.3     1  UNL1        0.2526
     21 O         143.0916  143.1612  164.9441 O.3     1  UNL1       -0.4683
     22 C         138.1914  138.5428  162.4087 C.3     1  UNL1        0.0970
     23 C         138.9784  137.8365  163.4725 C.3     1  UNL1        0.1264
     24 C         139.9171  139.6346  167.4895 C.ar    1  UNL1        0.1403
     25 C         141.3155  140.0758  167.8054 C.ar    1  UNL1        0.0385
     26 C         142.4010  139.9177  166.7823 C.ar    1  UNL1        0.0237
     27 C         142.0881  139.3184  165.4433 C.ar    1  UNL1        0.0975
     28 N         143.1736  139.1603  164.4202 N.ar    1  UNL1       -0.2374
     29 C         142.8607  138.5609  163.0813 C.ar    1  UNL1        0.1594
     30 C         141.4623  138.1197  162.7653 C.ar    1  UNL1        0.2803
     31 O         141.1494  137.5204  161.4264 O.2     1  UNL1       -0.2653
     32 N         140.3768  138.2778  163.7884 N.ar    1  UNL1       -0.2913
     33 C         140.6897  138.8771  165.1274 C.ar    1  UNL1        0.0832
     34 C         139.6042  139.0352  166.1505 C.ar    1  UNL1        0.0557
     35 C         139.1395  140.4135  169.8429 C.3     1  UNL1        0.2525
     36 O         138.8316  139.7926  168.5126 O.3     1  UNL1       -0.4714
@<TRIPOS>BOND
     1    35    36    1
     2    36    24    1
     3    24    25   ar
     4    25    26   ar
     5    26    27   ar
     6    27    28   ar
     7    28    29   ar
     8    29    30   ar
     9    30    31    2
    10    30    32   ar
    11    32    23    1
    12    23    22    1
    13    22     1    1
    14     1     2    1
    15     2     3    1
    16     3     4    1
    17     4     9    1
    18     9    11    1
    19    11    12    1
    20    12    13   ar
    21    13    14   ar
    22    14    15   ar
    23    15    16   ar
    24    16    17   ar
    25    15    18    1
    26    18    19    1
    27    19    20    1
    28    20    21    1
    29     4     5    1
    30     5     6    1
    31     5     7    1
    32    32    33   ar
    33    33    34   ar
    34    34    24   ar
    35    33    27   ar
    36     7     1    1
    37    17    12   ar
    38    21    14    1
    39     9    10    1
    40     6     8    1
@<TRIPOS>MOLECULE
*****
 36 40 0 0 0
SMALL
GASTEIGER

@<TRIPOS>ATOM
      1 N         141.7464  137.9860  164.0843 N.3     1  UNL1       -0.2689
      2 C         142.3386  138.4758  165.3725 C.3     1  UNL1        0.0737
      3 C         143.6557  139.1936  165.3674 C.3     1  UNL1        0.0356
      4 C         144.3806  139.4215  164.0742 C.3     1  UNL1        0.0843
      5 C         143.7884  138.9316  162.7860 C.3     1  UNL1        0.1407
      6 O         144.5134  139.1596  161.4927 O.3     1  UNL1       -0.3817
      7 C         142.4713  138.2139  162.7911 C.3     1  UNL1        0.1031
      8 H         145.3417  139.6338  161.6656 H       1  UNL1        0.2105
      9 N         145.6977  140.1393  164.0690 N.3     1  UNL1       -0.2915
     10 H         146.2278  139.7762  163.2769 H       1  UNL1        0.1236
     11 C         145.7362  141.6353  163.9666 C.3     1  UNL1        0.1153
     12 C         144.7781  142.3499  163.0603 C.ar    1  UNL1        0.0782
     13 C         143.7079  143.2259  163.6410 C.ar    1  UNL1        0.0562
     14 C         142.7498  143.9405  162.7347 C.ar    1  UNL1        0.1752
     15 C         142.8619  143.7790  161.2476 C.ar    1  UNL1        0.1914
     16 C         143.9321  142.9030  160.6669 C.ar    1  UNL1        0.1384
     17 N         144.8902  142.1884  161.5733 N.ar    1  UNL1       -0.2434
     18 O         141.9038  144.4936  160.3413 O.3     1  UNL1       -0.4668
     19 C         140.8336  145.3697  160.9220 C.3     1  UNL1        0.2527
     20 C         140.7215  145.5311  162.4091 C.3     1  UNL1        0.2526
     21 O         141.6796  144.8165  163.3154 O.3     1  UNL1       -0.4683
     22 C         140.4293  137.2682  164.0895 C.3     1  UNL1        0.0970
     23 C         139.1890  137.9800  164.5421 C.3     1  UNL1        0.1264
     24 C         140.0976  141.9128  166.5315 C.ar    1  UNL1        0.1403
     25 C         139.6884  143.1977  165.8747 C.ar    1  UNL1        0.0385
     26 C         138.9762  143.1718  164.5548 C.ar    1  UNL1        0.0237
     27 C         138.6733  141.8609  163.8917 C.ar    1  UNL1        0.0975
     28 N         137.9612  141.8349  162.5718 N.ar    1  UNL1       -0.2374
     29 C         137.6583  140.5240  161.9087 C.ar    1  UNL1        0.1594
     30 C         138.0675  139.2390  162.5654 C.ar    1  UNL1        0.2803
     31 O         137.7647  137.9281  161.9023 O.2     1  UNL1       -0.2653
     32 N         138.7797  139.2650  163.8853 N.ar    1  UNL1       -0.2913
     33 C         139.0826  140.5760  164.5485 C.ar    1  UNL1        0.0832
     34 C         139.7947  140.6019  165.8684 C.ar    1  UNL1        0.0557
     35 C         140.5257  143.0346  168.8354 C.3     1  UNL1        0.2525
     36 O         140.8098  141.9388  167.8514 O.3     1  UNL1       -0.4714
@<TRIPOS>BOND
     1    35    36    1
     2    36    24    1
     3    24    25   ar
     4    25    26   ar
     5    26    27   ar
     6    27    28   ar
     7    28    29   ar
     8    29    30   ar
     9    30    31    2
    10    30    32   ar
    11    32    23    1
    12    23    22    1
    13    22     1    1
    14     1     2    1
    15     2     3    1
    16     3     4    1
    17     4     9    1
    18     9    11    1
    19    11    12    1
    20    12    13   ar
    21    13    14   ar
    22    14    15   ar
    23    15    16   ar
    24    16    17   ar
    25    15    18    1
    26    18    19    1
    27    19    20    1
    28    20    21    1
    29     4     5    1
    30     5     6    1
    31     5     7    1
    32    32    33   ar
    33    33    34   ar
    34    34    24   ar
    35    33    27   ar
    36     7     1    1
    37    17    12   ar
    38    21    14    1
    39     9    10    1
    40     6     8    1
@<TRIPOS>MOLECULE
*****
 36 40 0 0 0
SMALL
GASTEIGER

@<TRIPOS>ATOM
      1 N         143.1701  139.7723  161.4667 N.3     1  UNL1       -0.2689
      2 C         142.1981  140.2600  160.4336 C.3     1  UNL1        0.0737
      3 C         140.8791  139.5675  160.2586 C.3     1  UNL1        0.0356
      4 C         140.5321  138.3873  161.1168 C.3     1  UNL1        0.0843
      5 C         141.5041  137.8995  162.1500 C.3     1  UNL1        0.1407
      6 O         141.1570  136.7192  163.0082 O.3     1  UNL1       -0.3817
      7 C         142.8231  138.5920  162.3249 C.3     1  UNL1        0.1031
      8 H         140.2758  136.3928  162.7680 H       1  UNL1        0.2105
      9 N         139.2130  137.6947  160.9420 N.3     1  UNL1       -0.2915
     10 H         139.3719  136.7057  161.1344 H       1  UNL1        0.1236
     11 C         138.0317  138.1120  161.7668 C.3     1  UNL1        0.1153
     12 C         138.0998  139.3593  162.5972 C.ar    1  UNL1        0.0782
     13 C         137.8589  140.6969  161.9626 C.ar    1  UNL1        0.0562
     14 C         137.9270  141.9442  162.7930 C.ar    1  UNL1        0.1752
     15 C         138.2359  141.8538  164.2581 C.ar    1  UNL1        0.1914
     16 C         138.4769  140.5162  164.8927 C.ar    1  UNL1        0.1384
     17 N         138.4088  139.2689  164.0622 N.ar    1  UNL1       -0.2434
     18 O         138.3040  143.1011  165.0885 O.3     1  UNL1       -0.4668
     19 C         138.0631  144.4387  164.4540 C.3     1  UNL1        0.2527
     20 C         137.7541  144.5291  162.9889 C.3     1  UNL1        0.2526
     21 O         137.6860  143.2818  162.1584 O.3     1  UNL1       -0.4683
     22 C         144.4892  140.4649  161.6416 C.3     1  UNL1        0.0970
     23 C         144.7567  141.2669  162.8806 C.3     1  UNL1        0.1264
     24 C         142.7833  140.1553  166.7691 C.ar    1  UNL1        0.1403
     25 C         141.7089  141.0312  167.3421 C.ar    1  UNL1        0.0385
     26 C         141.2921  142.2775  166.6189 C.ar    1  UNL1        0.0237
     27 C         141.9499  142.6481  165.3228 C.ar    1  UNL1        0.0975
     28 N         141.5332  143.8944  164.5997 N.ar    1  UNL1       -0.2374
     29 C         142.1910  144.2650  163.3035 C.ar    1  UNL1        0.1594
     30 C         143.2655  143.3891  162.7305 C.ar    1  UNL1        0.2803
     31 O         143.9232  143.7596  161.4343 O.2     1  UNL1       -0.2653
     32 N         143.6822  142.1427  163.4536 N.ar    1  UNL1       -0.2913
     33 C         143.0244  141.7722  164.7498 C.ar    1  UNL1        0.0832
     34 C         143.4411  140.5259  165.4729 C.ar    1  UNL1        0.0557
     35 C         143.9089  137.8138  166.7519 C.3     1  UNL1        0.2525
     36 O         143.2000  138.9090  167.4922 O.3     1  UNL1       -0.4714
@<TRIPOS>BOND
     1    35    36    1
     2    36    24    1
     3    24    25   ar
     4    25    26   ar
     5    26    27   ar
     6    27    28   ar
     7    28    29   ar
     8    29    30   ar
     9    30    31    2
    10    30    32   ar
    11    32    23    1
    12    23    22    1
    13    22     1    1
    14     1     2    1
    15     2     3    1
    16     3     4    1
    17     4     9    1
    18     9    11    1
    19    11    12    1
    20    12    13   ar
    21    13    14   ar
    22    14    15   ar
    23    15    16   ar
    24    16    17   ar
    25    15    18    1
    26    18    19    1
    27    19    20    1
    28    20    21    1
    29     4     5    1
    30     5     6    1
    31     5     7    1
    32    32    33   ar
    33    33    34   ar
    34    34    24   ar
    35    33    27   ar
    36     7     1    1
    37    17    12   ar
    38    21    14    1
    39     9    10    1
    40     6     8    1
@<TRIPOS>MOLECULE
*****
 36 40 0 0 0
SMALL
GASTEIGER

@<TRIPOS>ATOM
      1 N         143.0228  143.9883  162.3903 N.3     1  UNL1       -0.2689
      2 C         142.4731  144.8376  163.4979 C.3     1  UNL1        0.0737
      3 C         141.0275  145.2374  163.4896 C.3     1  UNL1        0.0356
      4 C         140.1314  144.7879  162.3738 C.3     1  UNL1        0.0843
      5 C         140.6811  143.9387  161.2662 C.3     1  UNL1        0.1407
      6 O         139.7850  143.4892  160.1504 O.3     1  UNL1       -0.3817
      7 C         142.1268  143.5389  161.2745 C.3     1  UNL1        0.1031
      8 H         138.8895  143.8320  160.2968 H       1  UNL1        0.2105
      9 N         138.6857  145.1877  162.3654 N.3     1  UNL1       -0.2915
     10 H         138.3968  145.2277  161.3880 H       1  UNL1        0.1236
     11 C         137.6711  144.3475  163.0828 C.3     1  UNL1        0.1153
     12 C         137.8551  142.8615  163.1708 C.ar    1  UNL1        0.0782
     13 C         138.1565  142.2201  164.4928 C.ar    1  UNL1        0.0562
     14 C         138.3406  140.7341  164.5809 C.ar    1  UNL1        0.1752
     15 C         138.2233  139.8893  163.3469 C.ar    1  UNL1        0.1914
     16 C         137.9219  140.5307  162.0248 C.ar    1  UNL1        0.1384
     17 N         137.7378  142.0168  161.9368 N.ar    1  UNL1       -0.2434
     18 O         138.4073  138.4033  163.4349 O.3     1  UNL1       -0.4668
     19 C         138.7088  137.7619  164.7570 C.3     1  UNL1        0.2527
     20 C         138.8261  138.6066  165.9910 C.3     1  UNL1        0.2526
     21 O         138.6420  140.0927  165.9029 O.3     1  UNL1       -0.4683
     22 C         144.4686  143.5885  162.3987 C.3     1  UNL1        0.0970
     23 C         144.9481  142.5285  163.3455 C.3     1  UNL1        0.1264
     24 C         143.3913  139.0434  160.9622 C.ar    1  UNL1        0.1403
     25 C         142.4114  138.0904  161.5799 C.ar    1  UNL1        0.0385
     26 C         141.9504  138.2991  162.9919 C.ar    1  UNL1        0.0237
     27 C         142.4693  139.4608  163.7864 C.ar    1  UNL1        0.0975
     28 N         142.0083  139.6695  165.1984 N.ar    1  UNL1       -0.2374
     29 C         142.5272  140.8312  165.9928 C.ar    1  UNL1        0.1594
     30 C         143.5072  141.7843  165.3752 C.ar    1  UNL1        0.2803
     31 O         144.0261  142.9460  166.1696 O.2     1  UNL1       -0.2653
     32 N         143.9682  141.5756  163.9631 N.ar    1  UNL1       -0.2913
     33 C         143.4492  140.4138  163.1687 C.ar    1  UNL1        0.0832
     34 C         143.9102  140.2051  161.7567 C.ar    1  UNL1        0.0557
     35 C         142.8856  138.3540  158.5089 C.3     1  UNL1        0.2525
     36 O         143.8523  138.8347  159.5502 O.3     1  UNL1       -0.4714
@<TRIPOS>BOND
     1    35    36    1
     2    36    24    1
     3    24    25   ar
     4    25    26   ar
     5    26    27   ar
     6    27    28   ar
     7    28    29   ar
     8    29    30   ar
     9    30    31    2
    10    30    32   ar
    11    32    23    1
    12    23    22    1
    13    22     1    1
    14     1     2    1
    15     2     3    1
    16     3     4    1
    17     4     9    1
    18     9    11    1
    19    11    12    1
    20    12    13   ar
    21    13    14   ar
    22    14    15   ar
    23    15    16   ar
    24    16    17   ar
    25    15    18    1
    26    18    19    1
    27    19    20    1
    28    20    21    1
    29     4     5    1
    30     5     6    1
    31     5     7    1
    32    32    33   ar
    33    33    34   ar
    34    34    24   ar
    35    33    27   ar
    36     7     1    1
    37    17    12   ar
    38    21    14    1
    39     9    10    1
    40     6     8    1
@<TRIPOS>MOLECULE
*****
 36 40 0 0 0
SMALL
GASTEIGER

@<TRIPOS>ATOM
      1 N         142.8235  144.0161  162.4658 N.3     1  UNL1       -0.2689
      2 C         142.2555  144.5142  163.7616 C.3     1  UNL1        0.0737
      3 C         140.8060  144.8896  163.8502 C.3     1  UNL1        0.0356
      4 C         139.9244  144.7669  162.6428 C.3     1  UNL1        0.0843
      5 C         140.4924  144.2688  161.3469 C.3     1  UNL1        0.1407
      6 O         139.6108  144.1461  160.1395 O.3     1  UNL1       -0.3817
      7 C         141.9419  143.8934  161.2584 C.3     1  UNL1        0.1031
      8 H         138.7106  144.4272  160.3666 H       1  UNL1        0.2105
      9 N         138.4748  145.1424  162.7313 N.3     1  UNL1       -0.2915
     10 H         138.1850  145.4208  161.7938 H       1  UNL1        0.1236
     11 C         137.4689  144.1407  163.2159 C.3     1  UNL1        0.1153
     12 C         137.7411  142.6730  163.0688 C.ar    1  UNL1        0.0782
     13 C         138.0332  141.8392  164.2810 C.ar    1  UNL1        0.0562
     14 C         138.3054  140.3715  164.1339 C.ar    1  UNL1        0.1752
     15 C         138.2855  139.7375  162.7745 C.ar    1  UNL1        0.1914
     16 C         137.9934  140.5713  161.5623 C.ar    1  UNL1        0.1384
     17 N         137.7212  142.0391  161.7095 N.ar    1  UNL1       -0.2434
     18 O         138.5577  138.2698  162.6274 O.3     1  UNL1       -0.4668
     19 C         138.8498  137.4360  163.8396 C.3     1  UNL1        0.2527
     20 C         138.8697  138.0698  165.1989 C.3     1  UNL1        0.2526
     21 O         138.5975  139.5376  165.3460 O.3     1  UNL1       -0.4683
     22 C         144.2731  143.6406  162.3773 C.3     1  UNL1        0.0970
     23 C         144.8482  142.6393  163.3347 C.3     1  UNL1        0.1264
     24 C         142.8955  141.5424  167.2377 C.ar    1  UNL1        0.1403
     25 C         142.2452  140.2005  167.3999 C.ar    1  UNL1        0.0385
     26 C         142.2459  139.2242  166.2611 C.ar    1  UNL1        0.0237
     27 C         142.8968  139.5898  164.9601 C.ar    1  UNL1        0.0975
     28 N         142.8974  138.6135  163.8214 N.ar    1  UNL1       -0.2374
     29 C         143.5483  138.9791  162.5204 C.ar    1  UNL1        0.1594
     30 C         144.1986  140.3211  162.3581 C.ar    1  UNL1        0.2803
     31 O         144.8495  140.6867  161.0571 O.2     1  UNL1       -0.2653
     32 N         144.1980  141.2974  163.4969 N.ar    1  UNL1       -0.2913
     33 C         143.5470  140.9317  164.7979 C.ar    1  UNL1        0.0832
     34 C         143.5464  141.9080  165.9367 C.ar    1  UNL1        0.0557
     35 C         143.5000  142.1346  169.6940 C.3     1  UNL1        0.2525
     36 O         142.8948  142.5188  168.3764 O.3     1  UNL1       -0.4714
@<TRIPOS>BOND
     1    35    36    1
     2    36    24    1
     3    24    25   ar
     4    25    26   ar
     5    26    27   ar
     6    27    28   ar
     7    28    29   ar
     8    29    30   ar
     9    30    31    2
    10    30    32   ar
    11    32    23    1
    12    23    22    1
    13    22     1    1
    14     1     2    1
    15     2     3    1
    16     3     4    1
    17     4     9    1
    18     9    11    1
    19    11    12    1
    20    12    13   ar
    21    13    14   ar
    22    14    15   ar
    23    15    16   ar
    24    16    17   ar
    25    15    18    1
    26    18    19    1
    27    19    20    1
    28    20    21    1
    29     4     5    1
    30     5     6    1
    31     5     7    1
    32    32    33   ar
    33    33    34   ar
    34    34    24   ar
    35    33    27   ar
    36     7     1    1
    37    17    12   ar
    38    21    14    1
    39     9    10    1
    40     6     8    1
@<TRIPOS>MOLECULE
*****
 36 40 0 0 0
SMALL
GASTEIGER

@<TRIPOS>ATOM
      1 N         137.8655  142.9751  162.8400 N.3     1  UNL1       -0.2689
      2 C         137.6521  141.8641  163.8250 C.3     1  UNL1        0.0737
      3 C         137.6540  140.4383  163.3594 C.3     1  UNL1        0.0356
      4 C         137.8691  140.1233  161.9087 C.3     1  UNL1        0.0843
      5 C         138.0824  141.2343  160.9237 C.3     1  UNL1        0.1407
      6 O         138.2976  140.9193  159.4730 O.3     1  UNL1       -0.3817
      7 C         138.0806  142.6601  161.3893 C.3     1  UNL1        0.1031
      8 H         138.2695  139.9584  159.3431 H       1  UNL1        0.2105
      9 N         137.8709  138.6974  161.4431 N.3     1  UNL1       -0.2915
     10 H         137.2991  138.6625  160.5992 H       1  UNL1        0.1236
     11 C         139.1671  138.0168  161.1162 C.3     1  UNL1        0.1153
     12 C         140.3616  138.2133  162.0020 C.ar    1  UNL1        0.0782
     13 C         141.4327  139.1881  161.6115 C.ar    1  UNL1        0.0562
     14 C         142.6271  139.3846  162.4972 C.ar    1  UNL1        0.1752
     15 C         142.7505  138.6063  163.7737 C.ar    1  UNL1        0.1914
     16 C         141.6794  137.6315  164.1642 C.ar    1  UNL1        0.1384
     17 N         140.4849  137.4351  163.2783 N.ar    1  UNL1       -0.2434
     18 O         143.9449  138.8028  164.6594 O.3     1  UNL1       -0.4668
     19 C         145.0161  139.7775  164.2689 C.3     1  UNL1        0.2527
     20 C         144.8928  140.5558  162.9926 C.3     1  UNL1        0.2526
     21 O         143.6983  140.3593  162.1067 O.3     1  UNL1       -0.4683
     22 C         137.8636  144.4010  163.3057 C.3     1  UNL1        0.0970
     23 C         138.9051  144.8745  164.2758 C.3     1  UNL1        0.1264
     24 C         140.8795  142.1180  167.2346 C.ar    1  UNL1        0.1403
     25 C         142.3139  141.7210  167.0481 C.ar    1  UNL1        0.0385
     26 C         143.0902  142.2428  165.8755 C.ar    1  UNL1        0.0237
     27 C         142.4321  143.1615  164.8892 C.ar    1  UNL1        0.0975
     28 N         143.2084  143.6833  163.7166 N.ar    1  UNL1       -0.2374
     29 C         142.5503  144.6021  162.7303 C.ar    1  UNL1        0.1594
     30 C         141.1158  144.9992  162.9167 C.ar    1  UNL1        0.2803
     31 O         140.4577  145.9179  161.9305 O.2     1  UNL1       -0.2653
     32 N         140.3395  144.4774  164.0894 N.ar    1  UNL1       -0.2913
     33 C         140.9977  143.5586  165.0757 C.ar    1  UNL1        0.0832
     34 C         140.2214  143.0368  166.2483 C.ar    1  UNL1        0.0557
     35 C         139.9694  140.1176  168.6201 C.3     1  UNL1        0.2525
     36 O         140.1032  141.5963  168.4072 O.3     1  UNL1       -0.4714
@<TRIPOS>BOND
     1    35    36    1
     2    36    24    1
     3    24    25   ar
     4    25    26   ar
     5    26    27   ar
     6    27    28   ar
     7    28    29   ar
     8    29    30   ar
     9    30    31    2
    10    30    32   ar
    11    32    23    1
    12    23    22    1
    13    22     1    1
    14     1     2    1
    15     2     3    1
    16     3     4    1
    17     4     9    1
    18     9    11    1
    19    11    12    1
    20    12    13   ar
    21    13    14   ar
    22    14    15   ar
    23    15    16   ar
    24    16    17   ar
    25    15    18    1
    26    18    19    1
    27    19    20    1
    28    20    21    1
    29     4     5    1
    30     5     6    1
    31     5     7    1
    32    32    33   ar
    33    33    34   ar
    34    34    24   ar
    35    33    27   ar
    36     7     1    1
    37    17    12   ar
    38    21    14    1
    39     9    10    1
    40     6     8    1
@<TRIPOS>MOLECULE
*****
 36 40 0 0 0
SMALL
GASTEIGER

@<TRIPOS>ATOM
      1 N         143.0783  138.9282  162.0880 N.3     1  UNL1       -0.2689
      2 C         143.9504  139.3373  163.2378 C.3     1  UNL1        0.0737
      3 C         144.6461  140.6660  163.2157 C.3     1  UNL1        0.0356
      4 C         144.4696  141.5856  162.0439 C.3     1  UNL1        0.0843
      5 C         143.5975  141.1765  160.8942 C.3     1  UNL1        0.1407
      6 O         143.4210  142.0962  159.7223 O.3     1  UNL1       -0.3817
      7 C         142.9018  139.8478  160.9162 C.3     1  UNL1        0.1031
      8 H         143.9348  142.9061  159.8667 H       1  UNL1        0.2105
      9 N         145.1653  142.9144  162.0218 N.3     1  UNL1       -0.2915
     10 H         145.4019  143.1068  161.0485 H       1  UNL1        0.1236
     11 C         144.4688  144.1345  162.5475 C.3     1  UNL1        0.1153
     12 C         142.9770  144.2503  162.4420 C.ar    1  UNL1        0.0782
     13 C         142.1218  144.0569  163.6591 C.ar    1  UNL1        0.0562
     14 C         140.6301  144.1727  163.5536 C.ar    1  UNL1        0.1752
     15 C         139.9934  144.4821  162.2311 C.ar    1  UNL1        0.1914
     16 C         140.8486  144.6755  161.0140 C.ar    1  UNL1        0.1384
     17 N         142.3405  144.5597  161.1195 N.ar    1  UNL1       -0.2434
     18 O         138.5017  144.5979  162.1256 O.3     1  UNL1       -0.4668
     19 C         137.6465  144.4045  163.3427 C.3     1  UNL1        0.2527
     20 C         138.2830  144.0952  164.6652 C.3     1  UNL1        0.2526
     21 O         139.7749  143.9793  164.7707 O.3     1  UNL1       -0.4683
     22 C         142.3825  137.5994  162.1101 C.3     1  UNL1        0.0970
     23 C         141.3389  137.3165  163.1497 C.3     1  UNL1        0.1264
     24 C         141.6931  139.5516  167.0392 C.ar    1  UNL1        0.1403
     25 C         140.6841  140.6031  167.3946 C.ar    1  UNL1        0.0385
     26 C         139.5570  140.9095  166.4534 C.ar    1  UNL1        0.0237
     27 C         139.4389  140.1645  165.1569 C.ar    1  UNL1        0.0975
     28 N         138.3119  140.4710  164.2158 N.ar    1  UNL1       -0.2374
     29 C         138.1938  139.7260  162.9193 C.ar    1  UNL1        0.1594
     30 C         139.2028  138.6744  162.5639 C.ar    1  UNL1        0.2803
     31 O         139.0847  137.9294  161.2674 O.2     1  UNL1       -0.2653
     32 N         140.3299  138.3680  163.5050 N.ar    1  UNL1       -0.2913
     33 C         140.4479  139.1130  164.8016 C.ar    1  UNL1        0.0832
     34 C         141.5750  138.8066  165.7427 C.ar    1  UNL1        0.0557
     35 C         142.5885  139.2722  169.4621 C.3     1  UNL1        0.2525
     36 O         142.8202  139.2451  167.9804 O.3     1  UNL1       -0.4714
@<TRIPOS>BOND
     1    35    36    1
     2    36    24    1
     3    24    25   ar
     4    25    26   ar
     5    26    27   ar
     6    27    28   ar
     7    28    29   ar
     8    29    30   ar
     9    30    31    2
    10    30    32   ar
    11    32    23    1
    12    23    22    1
    13    22     1    1
    14     1     2    1
    15     2     3    1
    16     3     4    1
    17     4     9    1
    18     9    11    1
    19    11    12    1
    20    12    13   ar
    21    13    14   ar
    22    14    15   ar
    23    15    16   ar
    24    16    17   ar
    25    15    18    1
    26    18    19    1
    27    19    20    1
    28    20    21    1
    29     4     5    1
    30     5     6    1
    31     5     7    1
    32    32    33   ar
    33    33    34   ar
    34    34    24   ar
    35    33    27   ar
    36     7     1    1
    37    17    12   ar
    38    21    14    1
    39     9    10    1
    40     6     8    1
@<TRIPOS>MOLECULE
*****
 36 40 0 0 0
SMALL
GASTEIGER

@<TRIPOS>ATOM
      1 N         144.4969  140.2807  163.2752 N.3     1  UNL1       -0.2689
      2 C         143.8736  139.3741  164.2948 C.3     1  UNL1        0.0737
      3 C         142.8096  138.4007  163.8821 C.3     1  UNL1        0.0356
      4 C         142.3690  138.3338  162.4499 C.3     1  UNL1        0.0843
      5 C         142.9923  139.2404  161.4303 C.3     1  UNL1        0.1407
      6 O         142.5516  139.1735  159.9980 O.3     1  UNL1       -0.3817
      7 C         144.0563  140.2138  161.8430 C.3     1  UNL1        0.1031
      8 H         141.8627  138.4973  159.9030 H       1  UNL1        0.2105
      9 N         141.3050  137.3603  162.0372 N.3     1  UNL1       -0.2915
     10 H         141.4435  136.5183  162.5959 H       1  UNL1        0.1236
     11 C         139.8575  137.7321  162.1660 C.3     1  UNL1        0.1153
     12 C         139.4417  139.1705  162.0758 C.ar    1  UNL1        0.0782
     13 C         138.9021  139.8726  163.2865 C.ar    1  UNL1        0.0562
     14 C         138.4863  141.3109  163.1963 C.ar    1  UNL1        0.1752
     15 C         138.6102  142.0473  161.8953 C.ar    1  UNL1        0.1914
     16 C         139.1499  141.3452  160.6846 C.ar    1  UNL1        0.1384
     17 N         139.5656  139.9068  160.7749 N.ar    1  UNL1       -0.2434
     18 O         138.1944  143.4857  161.8051 O.3     1  UNL1       -0.4668
     19 C         137.6548  144.1878  163.0158 C.3     1  UNL1        0.2527
     20 C         137.5309  143.4515  164.3167 C.3     1  UNL1        0.2526
     21 O         137.9467  142.0130  164.4070 O.3     1  UNL1       -0.4683
     22 C         145.5609  141.2542  163.6879 C.3     1  UNL1        0.0970
     23 C         145.1861  142.5107  164.4163 C.3     1  UNL1        0.1264
     24 C         142.2965  141.6530  167.7577 C.ar    1  UNL1        0.1403
     25 C         140.8907  142.1711  167.6850 C.ar    1  UNL1        0.0385
     26 C         140.4481  142.9751  166.4985 C.ar    1  UNL1        0.0237
     27 C         141.4113  143.2610  165.3847 C.ar    1  UNL1        0.0975
     28 N         140.9687  144.0650  164.1983 N.ar    1  UNL1       -0.2374
     29 C         141.9318  144.3509  163.0845 C.ar    1  UNL1        0.1594
     30 C         143.3377  143.8328  163.1572 C.ar    1  UNL1        0.2803
     31 O         144.3008  144.1187  162.0434 O.2     1  UNL1       -0.2653
     32 N         143.7803  143.0288  164.3436 N.ar    1  UNL1       -0.2913
     33 C         142.8170  142.7429  165.4574 C.ar    1  UNL1        0.0832
     34 C         143.2597  141.9389  166.6439 C.ar    1  UNL1        0.0557
     35 C         141.8850  139.7238  169.4485 C.3     1  UNL1        0.2525
     36 O         142.7391  140.8490  168.9441 O.3     1  UNL1       -0.4714
@<TRIPOS>BOND
     1    35    36    1
     2    36    24    1
     3    24    25   ar
     4    25    26   ar
     5    26    27   ar
     6    27    28   ar
     7    28    29   ar
     8    29    30   ar
     9    30    31    2
    10    30    32   ar
    11    32    23    1
    12    23    22    1
    13    22     1    1
    14     1     2    1
    15     2     3    1
    16     3     4    1
    17     4     9    1
    18     9    11    1
    19    11    12    1
    20    12    13   ar
    21    13    14   ar
    22    14    15   ar
    23    15    16   ar
    24    16    17   ar
    25    15    18    1
    26    18    19    1
    27    19    20    1
    28    20    21    1
    29     4     5    1
    30     5     6    1
    31     5     7    1
    32    32    33   ar
    33    33    34   ar
    34    34    24   ar
    35    33    27   ar
    36     7     1    1
    37    17    12   ar
    38    21    14    1
    39     9    10    1
    40     6     8    1
@<TRIPOS>MOLECULE
*****
 36 40 0 0 0
SMALL
GASTEIGER

@<TRIPOS>ATOM
      1 N         140.4769  143.9661  164.5663 N.3     1  UNL1       -0.2689
      2 C         141.0427  142.9509  165.5146 C.3     1  UNL1        0.0737
      3 C         142.5235  142.7179  165.5679 C.3     1  UNL1        0.0356
      4 C         143.4385  143.5000  164.6729 C.3     1  UNL1        0.0843
      5 C         142.8726  144.5152  163.7246 C.3     1  UNL1        0.1407
      6 O         143.7877  145.2974  162.8296 O.3     1  UNL1       -0.3817
      7 C         141.3918  144.7482  163.6713 C.3     1  UNL1        0.1031
      8 H         144.7053  145.0266  162.9893 H       1  UNL1        0.2105
      9 N         144.9194  143.2670  164.7262 N.3     1  UNL1       -0.2915
     10 H         145.1707  143.1942  165.7120 H       1  UNL1        0.1236
     11 C         145.5163  142.0754  164.0379 C.3     1  UNL1        0.1153
     12 C         144.9266  141.5792  162.7511 C.ar    1  UNL1        0.0782
     13 C         144.4557  140.1594  162.6402 C.ar    1  UNL1        0.0562
     14 C         143.8660  139.6631  161.3534 C.ar    1  UNL1        0.1752
     15 C         143.7472  140.5867  160.1774 C.ar    1  UNL1        0.1914
     16 C         144.2181  142.0066  160.2883 C.ar    1  UNL1        0.1384
     17 N         144.8079  142.5028  161.5752 N.ar    1  UNL1       -0.2434
     18 O         143.1575  140.0905  158.8905 O.3     1  UNL1       -0.4668
     19 C         142.6866  138.6707  158.7796 C.3     1  UNL1        0.2527
     20 C         142.8053  137.7471  159.9556 C.3     1  UNL1        0.2526
     21 O         143.3950  138.2433  161.2425 O.3     1  UNL1       -0.4683
     22 C         138.9960  144.1991  164.5130 C.3     1  UNL1        0.0970
     23 C         138.1284  143.3187  163.6632 C.3     1  UNL1        0.1264
     24 C         138.3132  139.1823  165.4254 C.ar    1  UNL1        0.1403
     25 C         138.9244  138.0594  164.6407 C.ar    1  UNL1        0.0385
     26 C         139.4740  138.3154  163.2687 C.ar    1  UNL1        0.0237
     27 C         139.4124  139.6942  162.6813 C.ar    1  UNL1        0.0975
     28 N         139.9619  139.9502  161.3093 N.ar    1  UNL1       -0.2374
     29 C         139.9004  141.3290  160.7219 C.ar    1  UNL1        0.1594
     30 C         139.2891  142.4519  161.5066 C.ar    1  UNL1        0.2803
     31 O         139.2275  143.8307  160.9192 O.2     1  UNL1       -0.2653
     32 N         138.7396  142.1959  162.8786 N.ar    1  UNL1       -0.2913
     33 C         138.8012  140.8170  163.4660 C.ar    1  UNL1        0.0832
     34 C         138.2516  140.5611  164.8380 C.ar    1  UNL1        0.0557
     35 C         137.2638  137.5599  167.1622 C.3     1  UNL1        0.2525
     36 O         137.7636  138.9263  166.7974 O.3     1  UNL1       -0.4714
@<TRIPOS>BOND
     1    35    36    1
     2    36    24    1
     3    24    25   ar
     4    25    26   ar
     5    26    27   ar
     6    27    28   ar
     7    28    29   ar
     8    29    30   ar
     9    30    31    2
    10    30    32   ar
    11    32    23    1
    12    23    22    1
    13    22     1    1
    14     1     2    1
    15     2     3    1
    16     3     4    1
    17     4     9    1
    18     9    11    1
    19    11    12    1
    20    12    13   ar
    21    13    14   ar
    22    14    15   ar
    23    15    16   ar
    24    16    17   ar
    25    15    18    1
    26    18    19    1
    27    19    20    1
    28    20    21    1
    29     4     5    1
    30     5     6    1
    31     5     7    1
    32    32    33   ar
    33    33    34   ar
    34    34    24   ar
    35    33    27   ar
    36     7     1    1
    37    17    12   ar
    38    21    14    1
    39     9    10    1
    40     6     8    1
