@<TRIPOS>MOLECULE
*****
 34 38 0 0 0
SMALL
GASTEIGER

@<TRIPOS>ATOM
      1 C         141.9727  138.2564  157.6330 C.2     1  UNL1        0.4051
      2 O         141.5990  139.4141  156.7553 O.2     1  UNL1       -0.2262
      3 N         142.5652  138.5037  158.9886 N.am    1  UNL1       -0.2460
      4 C         142.9858  137.4521  159.9721 C.3     1  UNL1        0.0968
      5 C         143.5216  138.1444  161.1901 C.3     1  UNL1        0.0234
      6 C         143.9901  139.0982  162.2488 C.3     1  UNL1        0.0230
      7 C         143.4322  139.6239  160.9594 C.3     1  UNL1        0.0234
      8 C         142.8411  139.8459  159.5988 C.3     1  UNL1        0.0968
      9 O         141.7539  136.8516  157.1550 O.3     1  UNL1       -0.4337
     10 C         143.9146  136.8968  155.7130 C.3     1  UNL1        0.0525
     11 C         142.8515  136.1243  156.4363 C.3     1  UNL1        0.1929
     12 C         142.8860  134.6248  156.4409 C.ar    1  UNL1        0.0190
     13 C         143.9400  133.9012  157.2255 C.ar    1  UNL1        0.0106
     14 C         143.9745  132.4016  157.2302 C.ar    1  UNL1        0.0583
     15 CL        145.0285  131.6781  158.0147 Cl      1  UNL1       -0.0822
     16 C         142.9550  131.6256  156.4502 C.ar    1  UNL1        0.0228
     17 C         141.9010  132.3491  155.6657 C.ar    1  UNL1        0.0583
     18 CL        140.8814  131.5730  154.8858 Cl      1  UNL1       -0.0822
     19 C         141.8664  133.8487  155.6610 C.ar    1  UNL1        0.0106
     20 C         144.5825  139.3455  163.6044 C.3     1  UNL1        0.0898
     21 N         143.7248  139.8837  164.7111 N.am    1  UNL1       -0.3009
     22 C         142.6575  139.0229  165.3192 C.2     1  UNL1        0.2456
     23 O         142.4479  137.6237  164.8207 O.2     1  UNL1       -0.2702
     24 H         143.8623  140.8020  165.0383 H       1  UNL1        0.1497
     25 C         141.7997  139.5611  166.4258 C.2     1  UNL1        0.0525
     26 C         140.3062  139.5566  166.2869 C.2     1  UNL1       -0.0153
     27 C         139.4485  140.0948  167.3935 C.3     1  UNL1        0.0726
     28 C         140.0843  140.6376  168.6390 C.2     1  UNL1        0.0933
     29 N         139.5009  141.2298  169.8876 N.am    1  UNL1       -0.1431
     30 C         140.6338  141.6003  170.7981 C.2     1  UNL1        0.4298
     31 O         140.5058  142.2245  172.1561 O.2     1  UNL1       -0.2238
     32 O         141.9175  141.2371  170.1122 O.3     1  UNL1       -0.4079
     33 C         141.5778  140.6421  168.7778 C.2     1  UNL1        0.1618
     34 C         142.4355  140.1039  167.6712 C.2     1  UNL1        0.0429
@<TRIPOS>BOND
     1    10    11    1
     2    11     9    1
     3     9     1    1
     4     1     2    2
     5     1     3   am
     6     3     4    1
     7     5     4    1
     8     5     6    1
     9     6    20    1
    10    20    21    1
    11    21    22   am
    12    22    23    2
    13    22    25    1
    14    25    26    2
    15    26    27    1
    16    27    28    1
    17    28    29    2
    18    29    30    1
    19    30    31    2
    20    30    32    1
    21    32    33    1
    22    33    34    2
    23     6     7    1
    24     7     8    1
    25    11    12    1
    26    12    13   ar
    27    13    14   ar
    28    14    15    1
    29    14    16   ar
    30    16    17   ar
    31    17    18    1
    32    17    19   ar
    33     8     3    1
    34    19    12   ar
    35     7     5    1
    36    34    25    1
    37    33    28    1
    38    21    24    1
@<TRIPOS>MOLECULE
*****
 34 38 0 0 0
SMALL
GASTEIGER

@<TRIPOS>ATOM
      1 C         141.9285  137.9961  157.4883 C.2     1  UNL1        0.4051
      2 O         143.4134  138.2091  157.4911 O.2     1  UNL1       -0.2262
      3 N         141.1150  138.3700  158.6917 N.am    1  UNL1       -0.2460
      4 C         139.6297  138.2162  158.8343 C.3     1  UNL1        0.0968
      5 C         139.2407  138.7144  160.1947 C.3     1  UNL1        0.0234
      6 C         139.1584  139.2689  161.5859 C.3     1  UNL1        0.0230
      7 C         140.4854  139.1761  160.8928 C.3     1  UNL1        0.0234
      8 C         141.6438  138.9632  159.9639 C.3     1  UNL1        0.0968
      9 O         141.2573  137.4094  156.2819 O.3     1  UNL1       -0.4337
     10 C         142.5302  137.0370  154.0478 C.3     1  UNL1        0.0525
     11 C         142.0258  136.5108  155.3588 C.3     1  UNL1        0.1929
     12 C         142.2898  135.0861  155.7467 C.ar    1  UNL1        0.0190
     13 C         141.4399  133.9857  155.1840 C.ar    1  UNL1        0.0106
     14 C         141.7039  132.5610  155.5719 C.ar    1  UNL1        0.0583
     15 CL        140.8540  131.4607  155.0091 Cl      1  UNL1       -0.0822
     16 C         142.8179  132.2367  156.5226 C.ar    1  UNL1        0.0228
     17 C         143.6679  133.3370  157.0853 C.ar    1  UNL1        0.0583
     18 CL        144.7819  133.0127  158.0360 Cl      1  UNL1       -0.0822
     19 C         143.4038  134.7618  156.6974 C.ar    1  UNL1        0.0106
     20 C         138.3449  139.6428  162.7894 C.3     1  UNL1        0.0898
     21 N         139.0281  140.1010  164.0437 N.am    1  UNL1       -0.3009
     22 C         139.4514  139.0986  165.0762 C.2     1  UNL1        0.2456
     23 O         139.1916  137.6380  164.8544 O.2     1  UNL1       -0.2702
     24 H         139.1986  141.0596  164.1893 H       1  UNL1        0.1497
     25 C         140.1346  139.5568  166.3306 C.2     1  UNL1        0.0525
     26 C         141.6182  139.3932  166.4792 C.2     1  UNL1       -0.0153
     27 C         142.3013  139.8514  167.7335 C.3     1  UNL1        0.0726
     28 C         141.5008  140.4732  168.8392 C.2     1  UNL1        0.0933
     29 N         141.8950  141.0157  170.1811 N.am    1  UNL1       -0.1431
     30 C         140.6549  141.5146  170.8617 C.2     1  UNL1        0.4298
     31 O         140.5871  142.1381  172.2243 O.2     1  UNL1       -0.2238
     32 O         139.4944  141.2804  169.9406 O.3     1  UNL1       -0.4079
     33 C         140.0173  140.6368  168.6906 C.2     1  UNL1        0.1618
     34 C         139.3341  140.1786  167.4363 C.2     1  UNL1        0.0429
@<TRIPOS>BOND
     1    10    11    1
     2    11     9    1
     3     9     1    1
     4     1     2    2
     5     1     3   am
     6     3     4    1
     7     5     4    1
     8     5     6    1
     9     6    20    1
    10    20    21    1
    11    21    22   am
    12    22    23    2
    13    22    25    1
    14    25    26    2
    15    26    27    1
    16    27    28    1
    17    28    29    2
    18    29    30    1
    19    30    31    2
    20    30    32    1
    21    32    33    1
    22    33    34    2
    23     6     7    1
    24     7     8    1
    25    11    12    1
    26    12    13   ar
    27    13    14   ar
    28    14    15    1
    29    14    16   ar
    30    16    17   ar
    31    17    18    1
    32    17    19   ar
    33     8     3    1
    34    19    12   ar
    35     7     5    1
    36    34    25    1
    37    33    28    1
    38    21    24    1
@<TRIPOS>MOLECULE
*****
 34 38 0 0 0
SMALL
GASTEIGER

@<TRIPOS>ATOM
      1 C         143.0841  143.5709  158.3413 C.2     1  UNL1        0.4051
      2 O         143.3274  142.9836  156.9827 O.2     1  UNL1       -0.2262
      3 N         143.3946  142.7702  159.5711 N.am    1  UNL1       -0.2460
      4 C         143.2048  143.2222  160.9887 C.3     1  UNL1        0.0968
      5 C         143.6423  142.1081  161.8930 C.3     1  UNL1        0.0234
      6 C         144.1412  140.8445  162.5286 C.3     1  UNL1        0.0230
      7 C         144.1024  140.9677  161.0342 C.3     1  UNL1        0.0234
      8 C         143.9493  141.3768  159.5992 C.3     1  UNL1        0.0968
      9 O         142.5304  144.9590  158.4702 O.3     1  UNL1       -0.4337
     10 C         140.3518  146.0452  157.5624 C.3     1  UNL1        0.0525
     11 C         141.0480  145.1696  158.5617 C.3     1  UNL1        0.1929
     12 C         140.2620  144.5047  159.6525 C.ar    1  UNL1        0.0190
     13 C         139.5904  143.1879  159.3973 C.ar    1  UNL1        0.0106
     14 C         138.8044  142.5229  160.4881 C.ar    1  UNL1        0.0583
     15 CL        138.1329  141.2062  160.2328 Cl      1  UNL1       -0.0822
     16 C         138.6898  143.1747  161.8342 C.ar    1  UNL1        0.0228
     17 C         139.3613  144.4915  162.0895 C.ar    1  UNL1        0.0583
     18 CL        139.2468  145.1433  163.4356 Cl      1  UNL1       -0.0822
     19 C         140.1474  145.1565  160.9987 C.ar    1  UNL1        0.0106
     20 C         144.4516  140.0437  163.7584 C.3     1  UNL1        0.0898
     21 N         143.5305  140.0979  164.9411 N.am    1  UNL1       -0.3009
     22 C         143.4359  141.3502  165.7613 C.2     1  UNL1        0.2456
     23 O         144.2625  142.5483  165.3989 O.2     1  UNL1       -0.2702
     24 H         142.9880  139.3116  165.1789 H       1  UNL1        0.1497
     25 C         142.5148  141.4044  166.9439 C.2     1  UNL1        0.0525
     26 C         142.7277  142.4339  168.0138 C.2     1  UNL1       -0.0153
     27 C         141.8066  142.4881  169.1964 C.3     1  UNL1        0.0726
     28 C         140.6725  141.5127  169.3091 C.2     1  UNL1        0.0933
     29 N         139.6098  141.3251  170.3510 N.am    1  UNL1       -0.1431
     30 C         138.7402  140.1796  169.9250 C.2     1  UNL1        0.4298
     31 O         137.5536  139.6477  170.6729 O.2     1  UNL1       -0.2238
     32 O         139.2654  139.6593  168.6198 O.3     1  UNL1       -0.4079
     33 C         140.4596  140.4832  168.2392 C.2     1  UNL1        0.1618
     34 C         141.3808  140.4291  167.0566 C.2     1  UNL1        0.0429
@<TRIPOS>BOND
     1    10    11    1
     2    11     9    1
     3     9     1    1
     4     1     2    2
     5     1     3   am
     6     3     4    1
     7     5     4    1
     8     5     6    1
     9     6    20    1
    10    20    21    1
    11    21    22   am
    12    22    23    2
    13    22    25    1
    14    25    26    2
    15    26    27    1
    16    27    28    1
    17    28    29    2
    18    29    30    1
    19    30    31    2
    20    30    32    1
    21    32    33    1
    22    33    34    2
    23     6     7    1
    24     7     8    1
    25    11    12    1
    26    12    13   ar
    27    13    14   ar
    28    14    15    1
    29    14    16   ar
    30    16    17   ar
    31    17    18    1
    32    17    19   ar
    33     8     3    1
    34    19    12   ar
    35     7     5    1
    36    34    25    1
    37    33    28    1
    38    21    24    1
@<TRIPOS>MOLECULE
*****
 34 38 0 0 0
SMALL
GASTEIGER

@<TRIPOS>ATOM
      1 C         141.6282  137.9411  157.2905 C.2     1  UNL1        0.4051
      2 O         141.3713  138.3398  155.8674 O.2     1  UNL1       -0.2262
      3 N         140.7170  138.4224  158.3804 N.am    1  UNL1       -0.2460
      4 C         140.8470  138.1080  159.8413 C.3     1  UNL1        0.0968
      5 C         139.7261  138.7940  160.5646 C.3     1  UNL1        0.0234
      6 C         138.5256  139.5799  161.0016 C.3     1  UNL1        0.0230
      7 C         138.9034  139.5323  159.5507 C.3     1  UNL1        0.0234
      8 C         139.5158  139.3026  158.2008 C.3     1  UNL1        0.0968
      9 O         142.7964  137.0610  157.6236 O.3     1  UNL1       -0.4337
     10 C         144.2919  136.8831  155.5066 C.3     1  UNL1        0.0525
     11 C         143.4384  136.2296  156.5527 C.3     1  UNL1        0.1929
     12 C         143.2270  134.7448  156.5281 C.ar    1  UNL1        0.0190
     13 C         144.1477  133.8433  157.2960 C.ar    1  UNL1        0.0106
     14 C         143.9363  132.3585  157.2713 C.ar    1  UNL1        0.0583
     15 CL        144.8570  131.4570  158.0392 Cl      1  UNL1       -0.0822
     16 C         142.8042  131.7752  156.4788 C.ar    1  UNL1        0.0228
     17 C         141.8835  132.6766  155.7110 C.ar    1  UNL1        0.0583
     18 CL        140.7513  132.0933  154.9185 Cl      1  UNL1       -0.0822
     19 C         142.0949  134.1615  155.7356 C.ar    1  UNL1        0.0106
     20 C         137.6144  140.0613  162.0915 C.3     1  UNL1        0.0898
     21 N         138.1899  140.6645  163.3385 N.am    1  UNL1       -0.3009
     22 C         138.6722  139.7771  164.4474 C.2     1  UNL1        0.2456
     23 O         138.5791  138.2864  164.3094 O.2     1  UNL1       -0.2702
     24 H         138.2511  141.6430  163.4291 H       1  UNL1        0.1497
     25 C         139.2478  140.3804  165.6944 C.2     1  UNL1        0.0525
     26 C         139.9929  141.6802  165.6238 C.2     1  UNL1       -0.0153
     27 C         140.5684  142.2834  166.8707 C.3     1  UNL1        0.0726
     28 C         140.3988  141.5868  168.1883 C.2     1  UNL1        0.0933
     29 N         140.8519  141.9372  169.5746 N.am    1  UNL1       -0.1431
     30 C         140.3868  140.8539  170.5020 C.2     1  UNL1        0.4298
     31 O         140.6211  140.7999  171.9827 O.2     1  UNL1       -0.2238
     32 O         139.6462  139.8340  169.6888 O.3     1  UNL1       -0.4079
     33 C         139.6536  140.2869  168.2589 C.2     1  UNL1        0.1618
     34 C         139.0781  139.6837  167.0119 C.2     1  UNL1        0.0429
@<TRIPOS>BOND
     1    10    11    1
     2    11     9    1
     3     9     1    1
     4     1     2    2
     5     1     3   am
     6     3     4    1
     7     5     4    1
     8     5     6    1
     9     6    20    1
    10    20    21    1
    11    21    22   am
    12    22    23    2
    13    22    25    1
    14    25    26    2
    15    26    27    1
    16    27    28    1
    17    28    29    2
    18    29    30    1
    19    30    31    2
    20    30    32    1
    21    32    33    1
    22    33    34    2
    23     6     7    1
    24     7     8    1
    25    11    12    1
    26    12    13   ar
    27    13    14   ar
    28    14    15    1
    29    14    16   ar
    30    16    17   ar
    31    17    18    1
    32    17    19   ar
    33     8     3    1
    34    19    12   ar
    35     7     5    1
    36    34    25    1
    37    33    28    1
    38    21    24    1
@<TRIPOS>MOLECULE
*****
 34 38 0 0 0
SMALL
GASTEIGER

@<TRIPOS>ATOM
      1 C         144.9286  140.7984  163.1388 C.2     1  UNL1        0.4051
      2 O         145.1948  139.9210  164.3260 O.2     1  UNL1       -0.2262
      3 N         144.3649  140.2073  161.8807 N.am    1  UNL1       -0.2460
      4 C         144.0482  140.9556  160.6198 C.3     1  UNL1        0.0968
      5 C         143.5065  139.9748  159.6224 C.3     1  UNL1        0.0234
      6 C         143.0093  138.7858  158.8551 C.3     1  UNL1        0.0230
      7 C         143.4884  138.6205  160.2669 C.3     1  UNL1        0.0234
      8 C         144.0189  138.7641  161.6625 C.3     1  UNL1        0.0968
      9 O         145.2261  142.2669  163.2097 O.3     1  UNL1       -0.4337
     10 C         144.0088  144.5420  162.9062 C.3     1  UNL1        0.0525
     11 C         144.1524  143.2307  163.6202 C.3     1  UNL1        0.1929
     12 C         143.2224  142.8831  164.7446 C.ar    1  UNL1        0.0190
     13 C         143.7561  142.7239  166.1374 C.ar    1  UNL1        0.0106
     14 C         142.8261  142.3763  167.2617 C.ar    1  UNL1        0.0583
     15 CL        143.3598  142.2171  168.6545 Cl      1  UNL1       -0.0822
     16 C         141.3624  142.1879  166.9934 C.ar    1  UNL1        0.0228
     17 C         140.8287  142.3471  165.6006 C.ar    1  UNL1        0.0583
     18 CL        139.3650  142.1587  165.3322 Cl      1  UNL1       -0.0822
     19 C         141.7587  142.6947  164.4762 C.ar    1  UNL1        0.0106
     20 C         142.4456  138.1947  157.5970 C.3     1  UNL1        0.0898
     21 N         142.4895  136.7111  157.3801 N.am    1  UNL1       -0.3009
     22 C         143.4981  136.1200  156.4402 C.2     1  UNL1        0.2456
     23 O         144.4627  137.0125  155.7171 O.2     1  UNL1       -0.2702
     24 H         141.8564  136.1253  157.8547 H       1  UNL1        0.1497
     25 C         143.5420  134.6363  156.2234 C.2     1  UNL1        0.0525
     26 C         143.0503  134.0522  154.9323 C.2     1  UNL1       -0.0153
     27 C         143.0942  132.5686  154.7155 C.3     1  UNL1        0.0726
     28 C         143.6298  131.6692  155.7898 C.2     1  UNL1        0.0933
     29 N         143.7961  130.1801  155.8616 N.am    1  UNL1       -0.1431
     30 C         144.3905  129.8440  157.1972 C.2     1  UNL1        0.4298
     31 O         144.7251  128.4681  157.6923 O.2     1  UNL1       -0.2238
     32 O         144.5916  131.1253  157.9507 O.3     1  UNL1       -0.4079
     33 C         144.1215  132.2533  157.0809 C.2     1  UNL1        0.1618
     34 C         144.0775  133.7369  157.2977 C.2     1  UNL1        0.0429
@<TRIPOS>BOND
     1    10    11    1
     2    11     9    1
     3     9     1    1
     4     1     2    2
     5     1     3   am
     6     3     4    1
     7     5     4    1
     8     5     6    1
     9     6    20    1
    10    20    21    1
    11    21    22   am
    12    22    23    2
    13    22    25    1
    14    25    26    2
    15    26    27    1
    16    27    28    1
    17    28    29    2
    18    29    30    1
    19    30    31    2
    20    30    32    1
    21    32    33    1
    22    33    34    2
    23     6     7    1
    24     7     8    1
    25    11    12    1
    26    12    13   ar
    27    13    14   ar
    28    14    15    1
    29    14    16   ar
    30    16    17   ar
    31    17    18    1
    32    17    19   ar
    33     8     3    1
    34    19    12   ar
    35     7     5    1
    36    34    25    1
    37    33    28    1
    38    21    24    1
@<TRIPOS>MOLECULE
*****
 34 38 0 0 0
SMALL
GASTEIGER

@<TRIPOS>ATOM
      1 C         142.6236  138.5543  164.5172 C.2     1  UNL1        0.4051
      2 O         143.9124  138.7755  165.2521 O.2     1  UNL1       -0.2262
      3 N         142.6317  138.3648  163.0293 N.am    1  UNL1       -0.2460
      4 C         141.4287  138.1354  162.1632 C.3     1  UNL1        0.0968
      5 C         141.8978  138.0003  160.7447 C.3     1  UNL1        0.0234
      6 C         142.6511  137.9091  159.4509 C.3     1  UNL1        0.0230
      7 C         143.3906  138.1462  160.7343 C.3     1  UNL1        0.0234
      8 C         143.8442  138.3716  162.1461 C.3     1  UNL1        0.0968
      9 O         141.3267  138.5227  165.2703 O.3     1  UNL1       -0.4337
     10 C         140.3413  140.9161  165.0456 C.3     1  UNL1        0.0525
     11 C         140.7973  139.7744  165.9050 C.3     1  UNL1        0.1929
     12 C         140.7239  139.8845  167.3991 C.ar    1  UNL1        0.0190
     13 C         139.3900  139.9645  168.0807 C.ar    1  UNL1        0.0106
     14 C         139.3166  140.0746  169.5748 C.ar    1  UNL1        0.0583
     15 CL        137.9827  140.1546  170.2562 Cl      1  UNL1       -0.0822
     16 C         140.5770  140.1046  170.3875 C.ar    1  UNL1        0.0228
     17 C         141.9108  140.0246  169.7060 C.ar    1  UNL1        0.0583
     18 CL        143.1713  140.0546  170.5187 Cl      1  UNL1       -0.0822
     19 C         141.9843  139.9145  168.2118 C.ar    1  UNL1        0.0106
     20 C         142.6592  137.7196  157.9630 C.3     1  UNL1        0.0898
     21 N         142.6209  136.3369  157.3827 N.am    1  UNL1       -0.3009
     22 C         143.5480  135.9674  156.2630 C.2     1  UNL1        0.2456
     23 O         144.5135  136.9806  155.7234 O.2     1  UNL1       -0.2702
     24 H         141.9872  135.6718  157.7369 H       1  UNL1        0.1497
     25 C         143.5096  134.5846  155.6828 C.2     1  UNL1        0.0525
     26 C         142.6537  134.2974  154.4849 C.2     1  UNL1       -0.0153
     27 C         142.6154  132.9147  153.9048 C.3     1  UNL1        0.0726
     28 C         143.4330  131.8192  154.5225 C.2     1  UNL1        0.0933
     29 N         143.5964  130.3697  154.1729 N.am    1  UNL1       -0.1431
     30 C         144.5533  129.7611  155.1547 C.2     1  UNL1        0.4298
     31 O         145.0032  128.3303  155.1764 O.2     1  UNL1       -0.2238
     32 O         144.9813  130.8345  156.1111 O.3     1  UNL1       -0.4079
     33 C         144.2889  132.1065  155.7203 C.2     1  UNL1        0.1618
     34 C         144.3272  133.4892  156.3005 C.2     1  UNL1        0.0429
@<TRIPOS>BOND
     1    10    11    1
     2    11     9    1
     3     9     1    1
     4     1     2    2
     5     1     3   am
     6     3     4    1
     7     5     4    1
     8     5     6    1
     9     6    20    1
    10    20    21    1
    11    21    22   am
    12    22    23    2
    13    22    25    1
    14    25    26    2
    15    26    27    1
    16    27    28    1
    17    28    29    2
    18    29    30    1
    19    30    31    2
    20    30    32    1
    21    32    33    1
    22    33    34    2
    23     6     7    1
    24     7     8    1
    25    11    12    1
    26    12    13   ar
    27    13    14   ar
    28    14    15    1
    29    14    16   ar
    30    16    17   ar
    31    17    18    1
    32    17    19   ar
    33     8     3    1
    34    19    12   ar
    35     7     5    1
    36    34    25    1
    37    33    28    1
    38    21    24    1
@<TRIPOS>MOLECULE
*****
 34 38 0 0 0
SMALL
GASTEIGER

@<TRIPOS>ATOM
      1 C         140.9017  138.7482  159.2249 C.2     1  UNL1        0.4051
      2 O         139.9941  139.1628  158.1048 O.2     1  UNL1       -0.2262
      3 N         140.3324  138.4497  160.5801 N.am    1  UNL1       -0.2460
      4 C         141.1115  138.0263  161.7900 C.3     1  UNL1        0.0968
      5 C         140.1445  137.8371  162.9211 C.3     1  UNL1        0.0234
      6 C         138.9632  137.7317  163.8394 C.3     1  UNL1        0.0230
      7 C         138.7679  138.1435  162.4103 C.3     1  UNL1        0.0234
      8 C         138.8840  138.5221  160.9635 C.3     1  UNL1        0.0968
      9 O         142.3786  138.6322  158.9896 O.3     1  UNL1       -0.4337
     10 C         143.9905  140.3639  157.9159 C.3     1  UNL1        0.0525
     11 C         143.2554  139.8427  159.1151 C.3     1  UNL1        0.1929
     12 C         143.3972  140.5321  160.4397 C.ar    1  UNL1        0.0190
     13 C         144.2283  139.9113  161.5232 C.ar    1  UNL1        0.0106
     14 C         144.3700  140.6007  162.8478 C.ar    1  UNL1        0.0583
     15 CL        145.2011  139.9799  163.9312 Cl      1  UNL1       -0.0822
     16 C         143.6807  141.9109  163.0890 C.ar    1  UNL1        0.0228
     17 C         142.8496  142.5317  162.0055 C.ar    1  UNL1        0.0583
     18 CL        142.1603  143.8419  162.2467 Cl      1  UNL1       -0.0822
     19 C         142.7078  141.8423  160.6809 C.ar    1  UNL1        0.0106
     20 C         138.3939  137.4332  165.1946 C.3     1  UNL1        0.0898
     21 N         138.9687  138.0949  166.4119 N.am    1  UNL1       -0.3009
     22 C         138.9985  139.5915  166.5086 C.2     1  UNL1        0.2456
     23 O         138.4536  140.4264  165.3879 O.2     1  UNL1       -0.2702
     24 H         139.3263  137.5469  167.1475 H       1  UNL1        0.1497
     25 C         139.5733  140.2531  167.7259 C.2     1  UNL1        0.0525
     26 C         138.9728  139.9923  169.0754 C.2     1  UNL1       -0.0153
     27 C         139.5476  140.6540  170.2927 C.3     1  UNL1        0.0726
     28 C         140.7229  141.5765  170.1604 C.2     1  UNL1        0.0933
     29 N         141.4983  142.3657  171.1733 N.am    1  UNL1       -0.1431
     30 C         142.5781  143.1144  170.4498 C.2     1  UNL1        0.4298
     31 O         143.5886  144.0290  171.0762 O.2     1  UNL1       -0.2238
     32 O         142.4700  142.7878  168.9897 O.3     1  UNL1       -0.4079
     33 C         141.3235  141.8373  168.8109 C.2     1  UNL1        0.1618
     34 C         140.7487  141.1756  167.5937 C.2     1  UNL1        0.0429
@<TRIPOS>BOND
     1    10    11    1
     2    11     9    1
     3     9     1    1
     4     1     2    2
     5     1     3   am
     6     3     4    1
     7     5     4    1
     8     5     6    1
     9     6    20    1
    10    20    21    1
    11    21    22   am
    12    22    23    2
    13    22    25    1
    14    25    26    2
    15    26    27    1
    16    27    28    1
    17    28    29    2
    18    29    30    1
    19    30    31    2
    20    30    32    1
    21    32    33    1
    22    33    34    2
    23     6     7    1
    24     7     8    1
    25    11    12    1
    26    12    13   ar
    27    13    14   ar
    28    14    15    1
    29    14    16   ar
    30    16    17   ar
    31    17    18    1
    32    17    19   ar
    33     8     3    1
    34    19    12   ar
    35     7     5    1
    36    34    25    1
    37    33    28    1
    38    21    24    1
@<TRIPOS>MOLECULE
*****
 34 38 0 0 0
SMALL
GASTEIGER

@<TRIPOS>ATOM
      1 C         142.6030  137.4330  156.9475 C.2     1  UNL1        0.4051
      2 O         143.9540  137.5616  156.3083 O.2     1  UNL1       -0.2262
      3 N         142.2084  138.3589  158.0597 N.am    1  UNL1       -0.2460
      4 C         140.8988  138.3505  158.7910 C.3     1  UNL1        0.0968
      5 C         140.9350  139.4422  159.8191 C.3     1  UNL1        0.0234
      6 C         141.2592  140.5855  160.7344 C.3     1  UNL1        0.0230
      7 C         142.2670  140.1252  159.7232 C.3     1  UNL1        0.0234
      8 C         143.0540  139.4557  158.6358 C.3     1  UNL1        0.0968
      9 O         141.6468  136.3786  156.4744 O.3     1  UNL1       -0.4337
     10 C         142.0507  135.6972  154.0000 C.3     1  UNL1        0.0525
     11 C         142.0898  135.3642  155.4620 C.3     1  UNL1        0.1929
     12 C         142.5718  134.0168  155.9117 C.ar    1  UNL1        0.0190
     13 C         141.8601  132.7763  155.4594 C.ar    1  UNL1        0.0106
     14 C         142.3421  131.4289  155.9091 C.ar    1  UNL1        0.0583
     15 CL        141.6304  130.1884  155.4568 Cl      1  UNL1       -0.0822
     16 C         143.5359  131.3220  156.8110 C.ar    1  UNL1        0.0228
     17 C         144.2477  132.5625  157.2632 C.ar    1  UNL1        0.0583
     18 CL        145.4415  132.4556  158.1651 Cl      1  UNL1       -0.0822
     19 C         143.7656  133.9100  156.8136 C.ar    1  UNL1        0.0106
     20 C         140.8645  141.5114  161.8465 C.3     1  UNL1        0.0898
     21 N         140.7363  140.9895  163.2470 N.am    1  UNL1       -0.3009
     22 C         139.8698  141.7077  164.2386 C.2     1  UNL1        0.2456
     23 O         139.1315  142.9477  163.8298 O.2     1  UNL1       -0.2702
     24 H         141.2209  140.1756  163.5154 H       1  UNL1        0.1497
     25 C         139.7417  141.1858  165.6391 C.2     1  UNL1        0.0525
     26 C         138.9619  139.9321  165.9039 C.2     1  UNL1       -0.0153
     27 C         138.8338  139.4104  167.3044 C.3     1  UNL1        0.0726
     28 C         139.4854  140.1423  168.4400 C.2     1  UNL1        0.0933
     29 N         139.5318  139.8702  169.9145 N.am    1  UNL1       -0.1431
     30 C         140.3403  140.9558  170.5609 C.2     1  UNL1        0.4298
     31 O         140.6425  141.0771  172.0251 O.2     1  UNL1       -0.2238
     32 O         140.7935  141.8988  169.4860 O.3     1  UNL1       -0.4079
     33 C         140.2651  141.3960  168.1752 C.2     1  UNL1        0.1618
     34 C         140.3933  141.9178  166.7748 C.2     1  UNL1        0.0429
@<TRIPOS>BOND
     1    10    11    1
     2    11     9    1
     3     9     1    1
     4     1     2    2
     5     1     3   am
     6     3     4    1
     7     5     4    1
     8     5     6    1
     9     6    20    1
    10    20    21    1
    11    21    22   am
    12    22    23    2
    13    22    25    1
    14    25    26    2
    15    26    27    1
    16    27    28    1
    17    28    29    2
    18    29    30    1
    19    30    31    2
    20    30    32    1
    21    32    33    1
    22    33    34    2
    23     6     7    1
    24     7     8    1
    25    11    12    1
    26    12    13   ar
    27    13    14   ar
    28    14    15    1
    29    14    16   ar
    30    16    17   ar
    31    17    18    1
    32    17    19   ar
    33     8     3    1
    34    19    12   ar
    35     7     5    1
    36    34    25    1
    37    33    28    1
    38    21    24    1
@<TRIPOS>MOLECULE
*****
 34 38 0 0 0
SMALL
GASTEIGER

@<TRIPOS>ATOM
      1 C         144.8791  141.1568  163.0087 C.2     1  UNL1        0.4051
      2 O         145.0243  140.1058  164.0691 O.2     1  UNL1       -0.2262
      3 N         144.4358  140.7730  161.6281 N.am    1  UNL1       -0.2460
      4 C         144.2467  141.7085  160.4709 C.3     1  UNL1        0.0968
      5 C         143.7978  140.8999  159.2898 C.3     1  UNL1        0.0234
      6 C         143.3698  139.8500  158.3078 C.3     1  UNL1        0.0230
      7 C         143.7095  139.4648  159.7171 C.3     1  UNL1        0.0234
      8 C         144.1038  139.3864  161.1622 C.3     1  UNL1        0.0968
      9 O         145.1772  142.5916  163.3290 O.3     1  UNL1       -0.4337
     10 C         143.8759  144.8311  163.1252 C.3     1  UNL1        0.0525
     11 C         144.0771  143.5014  163.7897 C.3     1  UNL1        0.1929
     12 C         143.1783  143.0816  164.9148 C.ar    1  UNL1        0.0190
     13 C         141.7051  142.9252  164.6795 C.ar    1  UNL1        0.0106
     14 C         140.8064  142.5054  165.8046 C.ar    1  UNL1        0.0583
     15 CL        139.3332  142.3490  165.5693 Cl      1  UNL1       -0.0822
     16 C         141.3807  142.2419  167.1650 C.ar    1  UNL1        0.0228
     17 C         142.8538  142.3983  167.4003 C.ar    1  UNL1        0.0583
     18 CL        143.4282  142.1348  168.7607 Cl      1  UNL1       -0.0822
     19 C         143.7527  142.8181  166.2752 C.ar    1  UNL1        0.0106
     20 C         142.9265  139.4662  156.9272 C.3     1  UNL1        0.0898
     21 N         142.5937  138.0369  156.6165 N.am    1  UNL1       -0.3009
     22 C         143.6201  137.1499  155.9764 C.2     1  UNL1        0.2456
     23 O         144.9793  137.6921  155.6470 O.2     1  UNL1       -0.2702
     24 H         141.7016  137.6810  156.8327 H       1  UNL1        0.1497
     25 C         143.2873  135.7206  155.6658 C.2     1  UNL1        0.0525
     26 C         142.6908  135.3611  154.3372 C.2     1  UNL1       -0.0153
     27 C         142.3580  133.9319  154.0266 C.3     1  UNL1        0.0726
     28 C         142.6217  132.8622  155.0445 C.2     1  UNL1        0.0933
     29 N         142.3994  131.3788  155.0223 N.am    1  UNL1       -0.1431
     30 C         142.8585  130.8216  156.3371 C.2     1  UNL1        0.4298
     31 O         142.8186  129.3788  156.7455 O.2     1  UNL1       -0.2238
     32 O         143.3645  131.9605  157.1719 O.3     1  UNL1       -0.4079
     33 C         143.2181  133.2216  156.3730 C.2     1  UNL1        0.1618
     34 C         143.5509  134.6508  156.6836 C.2     1  UNL1        0.0429
@<TRIPOS>BOND
     1    10    11    1
     2    11     9    1
     3     9     1    1
     4     1     2    2
     5     1     3   am
     6     3     4    1
     7     5     4    1
     8     5     6    1
     9     6    20    1
    10    20    21    1
    11    21    22   am
    12    22    23    2
    13    22    25    1
    14    25    26    2
    15    26    27    1
    16    27    28    1
    17    28    29    2
    18    29    30    1
    19    30    31    2
    20    30    32    1
    21    32    33    1
    22    33    34    2
    23     6     7    1
    24     7     8    1
    25    11    12    1
    26    12    13   ar
    27    13    14   ar
    28    14    15    1
    29    14    16   ar
    30    16    17   ar
    31    17    18    1
    32    17    19   ar
    33     8     3    1
    34    19    12   ar
    35     7     5    1
    36    34    25    1
    37    33    28    1
    38    21    24    1
