@<TRIPOS>MOLECULE
*****
 28 32 0 0 0
SMALL
GASTEIGER

@<TRIPOS>ATOM
      1 C         142.9579  139.5576  162.7414 C.3     1  UNL1        0.1122
      2 C         143.3546  140.5966  161.7349 C.3     1  UNL1        0.0160
      3 C         143.3783  140.2554  160.2745 C.3     1  UNL1        0.0425
      4 C         143.0053  138.8753  159.8205 C.3     1  UNL1        0.1561
      5 C         142.6086  137.8363  160.8270 C.3     1  UNL1        0.0425
      6 C         142.5849  138.1774  162.2875 C.3     1  UNL1        0.0160
      7 C         142.6597  137.5448  159.2201 C.3     1  UNL1        0.1414
      8 N         142.8195  137.6520  157.7324 N.am    1  UNL1       -0.2215
      9 C         143.2639  139.0487  157.4134 C.2     1  UNL1        0.4086
     10 O         143.5442  139.5937  156.0444 O.2     1  UNL1       -0.2258
     11 O         143.3787  139.8048  158.7039 O.3     1  UNL1       -0.4398
     12 C         142.9311  141.7415  168.8105 C.2     1  UNL1        0.0547
     13 C         142.7825  140.2876  169.1477 C.2     1  UNL1        0.0103
     14 C         142.7286  139.2651  168.0515 C.2     1  UNL1        0.0505
     15 C         142.8235  139.6966  166.6181 C.2     1  UNL1        0.2318
     16 N         142.8000  138.9229  165.3332 N.2     1  UNL1       -0.0351
     17 C         142.9342  139.8987  164.2020 C.2     1  UNL1        0.3506
     18 N         143.0406  141.2756  164.7877 N.2     1  UNL1       -0.0389
     19 C         142.9722  141.1507  166.2809 C.2     1  UNL1        0.2181
     20 C         143.0260  142.1731  167.3771 C.3     1  UNL1        0.1144
     21 N         143.0388  143.7864  171.0030 N.1     1  UNL1       -0.1911
     22 C         142.9850  142.7640  169.9067 C.1     1  UNL1        0.0965
     23 C         142.5775  136.5551  156.7384 C.ar    1  UNL1        0.0571
     24 C         141.2449  136.4384  156.0599 C.ar    1  UNL1        0.0150
     25 C         141.0029  135.3415  155.0658 C.ar    1  UNL1        0.0013
     26 C         142.0934  134.3612  154.7503 C.ar    1  UNL1        0.0001
     27 C         143.4261  134.4779  155.4288 C.ar    1  UNL1        0.0013
     28 C         143.6681  135.5748  156.4229 C.ar    1  UNL1        0.0150
@<TRIPOS>BOND
     1    21    22    3
     2    22    12    1
     3    12    13    2
     4    13    14    1
     5    14    15    2
     6    15    16    1
     7    16    17    2
     8     1    17    1
     9     1     2    1
    10     2     3    1
    11     4     3    1
    12     4     5    1
    13     5     6    1
    14     4     7    1
    15     7     8    1
    16     8    23    1
    17    23    24   ar
    18    24    25   ar
    19    25    26   ar
    20    26    27   ar
    21    27    28   ar
    22     8     9   am
    23     9    10    2
    24     9    11    1
    25    17    18    1
    26    18    19    2
    27    19    20    1
    28    20    12    1
    29    19    15    1
    30     6     1    1
    31    28    23   ar
    32    11     4    1
@<TRIPOS>MOLECULE
*****
 28 32 0 0 0
SMALL
GASTEIGER

@<TRIPOS>ATOM
      1 C         140.7336  143.4162  162.4428 C.3     1  UNL1        0.1122
      2 C         140.1188  142.3329  161.6072 C.3     1  UNL1        0.0160
      3 C         139.7829  142.5946  160.1689 C.3     1  UNL1        0.0425
      4 C         140.0619  143.9396  159.5663 C.3     1  UNL1        0.1561
      5 C         140.6767  145.0229  160.4020 C.3     1  UNL1        0.0425
      6 C         141.0126  144.7612  161.8402 C.3     1  UNL1        0.0160
      7 C         140.2819  145.2277  158.8298 C.3     1  UNL1        0.1414
      8 N         139.8030  145.0433  157.4202 N.am    1  UNL1       -0.2215
      9 C         139.2870  143.6413  157.2856 C.2     1  UNL1        0.4086
     10 O         138.7120  143.0290  156.0430 O.2     1  UNL1       -0.2258
     11 O         139.4470  142.9592  158.6119 O.3     1  UNL1       -0.4398
     12 C         141.4506  142.4100  168.7735 C.2     1  UNL1        0.0547
     13 C         142.8856  142.1873  168.3979 C.2     1  UNL1        0.0103
     14 C         143.3122  142.3025  166.9645 C.2     1  UNL1        0.0505
     15 C         142.3039  142.6405  165.9067 C.2     1  UNL1        0.2318
     16 N         142.4279  142.8205  164.4227 N.2     1  UNL1       -0.0351
     17 C         141.0695  143.1545  163.8812 C.2     1  UNL1        0.3506
     18 N         140.1060  143.1809  165.0305 N.2     1  UNL1       -0.0389
     19 C         140.8688  142.8633  166.2823 C.2     1  UNL1        0.2181
     20 C         140.4422  142.7480  167.7157 C.3     1  UNL1        0.1144
     21 N         140.5973  142.1796  171.6404 N.1     1  UNL1       -0.1911
     22 C         141.0239  142.2948  170.2069 C.1     1  UNL1        0.0965
     23 C         139.8346  146.0791  156.3357 C.ar    1  UNL1        0.0571
     24 C         140.6748  145.8592  155.1128 C.ar    1  UNL1        0.0150
     25 C         140.7064  146.8950  154.0283 C.ar    1  UNL1        0.0013
     26 C         139.8978  148.1507  154.1667 C.ar    1  UNL1        0.0001
     27 C         139.0575  148.3706  155.3897 C.ar    1  UNL1        0.0013
     28 C         139.0259  147.3349  156.4742 C.ar    1  UNL1        0.0150
@<TRIPOS>BOND
     1    21    22    3
     2    22    12    1
     3    12    13    2
     4    13    14    1
     5    14    15    2
     6    15    16    1
     7    16    17    2
     8     1    17    1
     9     1     2    1
    10     2     3    1
    11     4     3    1
    12     4     5    1
    13     5     6    1
    14     4     7    1
    15     7     8    1
    16     8    23    1
    17    23    24   ar
    18    24    25   ar
    19    25    26   ar
    20    26    27   ar
    21    27    28   ar
    22     8     9   am
    23     9    10    2
    24     9    11    1
    25    17    18    1
    26    18    19    2
    27    19    20    1
    28    20    12    1
    29    19    15    1
    30     6     1    1
    31    28    23   ar
    32    11     4    1
@<TRIPOS>MOLECULE
*****
 28 32 0 0 0
SMALL
GASTEIGER

@<TRIPOS>ATOM
      1 C         141.4440  144.2602  161.4134 C.3     1  UNL1        0.1122
      2 C         142.7825  144.3602  162.0830 C.3     1  UNL1        0.0160
      3 C         142.9457  143.9088  163.5041 C.3     1  UNL1        0.0425
      4 C         141.7704  143.3573  164.2555 C.3     1  UNL1        0.1561
      5 C         140.4320  143.2573  163.5859 C.3     1  UNL1        0.0425
      6 C         140.2688  143.7088  162.1648 C.3     1  UNL1        0.0160
      7 C         140.6922  142.7876  165.1290 C.3     1  UNL1        0.1414
      8 N         141.2960  142.4744  166.4661 N.am    1  UNL1       -0.2215
      9 C         142.7473  142.8506  166.4188 C.2     1  UNL1        0.4086
     10 O         143.7324  142.7064  167.5407 O.2     1  UNL1       -0.2258
     11 O         143.0405  143.3962  165.0527 O.3     1  UNL1       -0.4398
     12 C         141.3814  145.8342  155.1586 C.2     1  UNL1        0.0547
     13 C         140.1123  146.5427  155.5294 C.2     1  UNL1        0.0103
     14 C         139.6191  146.5059  156.9456 C.2     1  UNL1        0.0505
     15 C         140.3950  145.7607  157.9908 C.2     1  UNL1        0.2318
     16 N         140.1581  145.5503  159.4570 N.2     1  UNL1       -0.0351
     17 C         141.2807  144.7118  159.9923 C.2     1  UNL1        0.3506
     18 N         142.2115  144.4040  158.8569 N.2     1  UNL1       -0.0389
     19 C         141.6641  145.0522  157.6200 C.2     1  UNL1        0.2181
     20 C         142.1573  145.0890  156.2039 C.3     1  UNL1        0.1144
     21 N         142.3677  145.9078  152.3263 N.1     1  UNL1       -0.1911
     22 C         141.8745  145.8710  153.7425 C.1     1  UNL1        0.0965
     23 C         140.5750  141.8881  167.6435 C.ar    1  UNL1        0.0571
     24 C         140.5086  142.6464  168.9359 C.ar    1  UNL1        0.0150
     25 C         139.7876  142.0600  170.1133 C.ar    1  UNL1        0.0013
     26 C         139.1330  140.7154  169.9983 C.ar    1  UNL1        0.0001
     27 C         139.1994  139.9570  168.7058 C.ar    1  UNL1        0.0013
     28 C         139.9204  140.5434  167.5284 C.ar    1  UNL1        0.0150
@<TRIPOS>BOND
     1    21    22    3
     2    22    12    1
     3    12    13    2
     4    13    14    1
     5    14    15    2
     6    15    16    1
     7    16    17    2
     8     1    17    1
     9     1     2    1
    10     2     3    1
    11     4     3    1
    12     4     5    1
    13     5     6    1
    14     4     7    1
    15     7     8    1
    16     8    23    1
    17    23    24   ar
    18    24    25   ar
    19    25    26   ar
    20    26    27   ar
    21    27    28   ar
    22     8     9   am
    23     9    10    2
    24     9    11    1
    25    17    18    1
    26    18    19    2
    27    19    20    1
    28    20    12    1
    29    19    15    1
    30     6     1    1
    31    28    23   ar
    32    11     4    1
@<TRIPOS>MOLECULE
*****
 28 32 0 0 0
SMALL
GASTEIGER

@<TRIPOS>ATOM
      1 C         139.1704  142.2080  161.3572 C.3     1  UNL1        0.1122
      2 C         138.0350  141.2809  161.6754 C.3     1  UNL1        0.0160
      3 C         137.9566  140.6258  163.0224 C.3     1  UNL1        0.0425
      4 C         139.0136  140.8977  164.0513 C.3     1  UNL1        0.1561
      5 C         140.1491  141.8248  163.7332 C.3     1  UNL1        0.0425
      6 C         140.2275  142.4800  162.3862 C.3     1  UNL1        0.0160
      7 C         139.9916  141.0727  165.1752 C.3     1  UNL1        0.1414
      8 N         139.5259  140.2356  166.3296 N.am    1  UNL1       -0.2215
      9 C         138.2600  139.5433  165.9191 C.2     1  UNL1        0.4086
     10 O         137.4526  138.6064  166.7677 O.2     1  UNL1       -0.2258
     11 O         137.9434  139.9525  164.5112 O.3     1  UNL1       -0.4398
     12 C         139.7861  145.6252  155.9214 C.2     1  UNL1        0.0547
     13 C         139.2248  144.3875  155.2867 C.2     1  UNL1        0.0103
     14 C         138.8761  143.2012  156.1359 C.2     1  UNL1        0.0505
     15 C         139.0889  143.2526  157.6199 C.2     1  UNL1        0.2318
     16 N         138.8408  142.2470  158.7049 N.2     1  UNL1       -0.0351
     17 C         139.2489  142.8632  160.0101 C.2     1  UNL1        0.3506
     18 N         139.7491  144.2497  159.7318 N.2     1  UNL1       -0.0389
     19 C         139.6503  144.4904  158.2546 C.2     1  UNL1        0.2181
     20 C         139.9989  145.6766  157.4054 C.3     1  UNL1        0.1144
     21 N         140.4834  147.9978  154.2230 N.1     1  UNL1       -0.1911
     22 C         140.1348  146.8115  155.0722 C.1     1  UNL1        0.0965
     23 C         140.2065  140.1125  167.6606 C.ar    1  UNL1        0.0571
     24 C         139.4199  140.2939  168.9247 C.ar    1  UNL1        0.0150
     25 C         140.1005  140.1708  170.2557 C.ar    1  UNL1        0.0013
     26 C         141.5677  139.8662  170.3226 C.ar    1  UNL1        0.0001
     27 C         142.3543  139.6849  169.0583 C.ar    1  UNL1        0.0013
     28 C         141.6737  139.8080  167.7273 C.ar    1  UNL1        0.0150
@<TRIPOS>BOND
     1    21    22    3
     2    22    12    1
     3    12    13    2
     4    13    14    1
     5    14    15    2
     6    15    16    1
     7    16    17    2
     8     1    17    1
     9     1     2    1
    10     2     3    1
    11     4     3    1
    12     4     5    1
    13     5     6    1
    14     4     7    1
    15     7     8    1
    16     8    23    1
    17    23    24   ar
    18    24    25   ar
    19    25    26   ar
    20    26    27   ar
    21    27    28   ar
    22     8     9   am
    23     9    10    2
    24     9    11    1
    25    17    18    1
    26    18    19    2
    27    19    20    1
    28    20    12    1
    29    19    15    1
    30     6     1    1
    31    28    23   ar
    32    11     4    1
@<TRIPOS>MOLECULE
*****
 28 32 0 0 0
SMALL
GASTEIGER

@<TRIPOS>ATOM
      1 C         139.5443  139.7208  161.9974 C.3     1  UNL1        0.1122
      2 C         138.6315  138.9740  162.9242 C.3     1  UNL1        0.0160
      3 C         138.7410  139.1737  164.4068 C.3     1  UNL1        0.0425
      4 C         139.7633  140.1202  164.9626 C.3     1  UNL1        0.1561
      5 C         140.6761  140.8670  164.0358 C.3     1  UNL1        0.0425
      6 C         140.5666  140.6673  162.5532 C.3     1  UNL1        0.0160
      7 C         140.7316  141.0285  165.6608 C.3     1  UNL1        0.1414
      8 N         140.4905  140.9163  167.1371 N.am    1  UNL1       -0.2215
      9 C         139.3732  139.9386  167.3512 C.2     1  UNL1        0.4086
     10 O         138.8051  139.5255  168.6765 O.2     1  UNL1       -0.2258
     11 O         138.9238  139.4466  166.0074 O.3     1  UNL1       -0.4398
     12 C         139.4177  138.2031  155.7297 C.2     1  UNL1        0.0547
     13 C         138.7358  139.5329  155.6009 C.2     1  UNL1        0.0103
     14 C         138.4897  140.3708  156.8205 C.2     1  UNL1        0.0505
     15 C         138.9254  139.8788  158.1689 C.2     1  UNL1        0.2318
     16 N         138.8188  140.4797  159.5391 N.2     1  UNL1       -0.0351
     17 C         139.4348  139.5212  160.5147 C.2     1  UNL1        0.3506
     18 N         139.9221  138.3279  159.7474 N.2     1  UNL1       -0.0389
     19 C         139.6073  138.5489  158.2976 C.2     1  UNL1        0.2181
     20 C         139.8534  137.7111  157.0780 C.3     1  UNL1        0.1144
     21 N         139.9099  136.5274  153.2904 N.1     1  UNL1       -0.1911
     22 C         139.6638  137.3653  154.5101 C.1     1  UNL1        0.0965
     23 C         141.2358  141.6525  168.2106 C.ar    1  UNL1        0.0571
     24 C         142.6535  141.2807  168.5292 C.ar    1  UNL1        0.0150
     25 C         143.3988  142.0168  169.6027 C.ar    1  UNL1        0.0013
     26 C         142.7264  143.1248  170.3577 C.ar    1  UNL1        0.0001
     27 C         141.3085  143.4966  170.0392 C.ar    1  UNL1        0.0013
     28 C         140.5632  142.7605  168.9656 C.ar    1  UNL1        0.0150
@<TRIPOS>BOND
     1    21    22    3
     2    22    12    1
     3    12    13    2
     4    13    14    1
     5    14    15    2
     6    15    16    1
     7    16    17    2
     8     1    17    1
     9     1     2    1
    10     2     3    1
    11     4     3    1
    12     4     5    1
    13     5     6    1
    14     4     7    1
    15     7     8    1
    16     8    23    1
    17    23    24   ar
    18    24    25   ar
    19    25    26   ar
    20    26    27   ar
    21    27    28   ar
    22     8     9   am
    23     9    10    2
    24     9    11    1
    25    17    18    1
    26    18    19    2
    27    19    20    1
    28    20    12    1
    29    19    15    1
    30     6     1    1
    31    28    23   ar
    32    11     4    1
@<TRIPOS>MOLECULE
*****
 28 32 0 0 0
SMALL
GASTEIGER

@<TRIPOS>ATOM
      1 C         140.0294  143.5074  161.2087 C.3     1  UNL1        0.1122
      2 C         139.2194  142.3113  161.6126 C.3     1  UNL1        0.0160
      3 C         139.2856  141.8017  163.0218 C.3     1  UNL1        0.0425
      4 C         140.1618  142.4884  164.0272 C.3     1  UNL1        0.1561
      5 C         140.9718  143.6845  163.6234 C.3     1  UNL1        0.0425
      6 C         140.9056  144.1940  162.2141 C.3     1  UNL1        0.0160
      7 C         140.9884  143.0683  165.1365 C.3     1  UNL1        0.1414
      8 N         140.7505  142.2477  166.3695 N.am    1  UNL1       -0.2215
      9 C         139.7769  141.1607  166.0222 C.2     1  UNL1        0.4086
     10 O         139.2583  140.1096  166.9581 O.2     1  UNL1       -0.2258
     11 O         139.4131  141.3094  164.5746 O.3     1  UNL1       -0.4398
     12 C         139.8573  146.3831  155.4377 C.2     1  UNL1        0.0547
     13 C         139.6363  144.9847  154.9424 C.2     1  UNL1        0.0103
     14 C         139.5830  143.8440  155.9151 C.2     1  UNL1        0.0505
     15 C         139.7509  144.1019  157.3832 C.2     1  UNL1        0.2318
     16 N         139.7455  143.1851  158.5704 N.2     1  UNL1       -0.0351
     17 C         139.9632  144.0170  159.7995 C.2     1  UNL1        0.3506
     18 N         140.1032  145.4480  159.3719 N.2     1  UNL1       -0.0389
     19 C         139.9719  145.5005  157.8785 C.2     1  UNL1        0.2181
     20 C         140.0251  146.6410  156.9058 C.3     1  UNL1        0.1144
     21 N         139.9637  148.6643  153.4922 N.1     1  UNL1       -0.1911
     22 C         139.9105  147.5236  154.4649 C.1     1  UNL1        0.0965
     23 C         141.3762  142.4744  167.7138 C.ar    1  UNL1        0.0571
     24 C         140.5745  143.0947  168.8193 C.ar    1  UNL1        0.0150
     25 C         141.2003  143.3214  170.1635 C.ar    1  UNL1        0.0013
     26 C         142.6278  142.9278  170.4022 C.ar    1  UNL1        0.0001
     27 C         143.4296  142.3074  169.2967 C.ar    1  UNL1        0.0013
     28 C         142.8038  142.0807  167.9524 C.ar    1  UNL1        0.0150
@<TRIPOS>BOND
     1    21    22    3
     2    22    12    1
     3    12    13    2
     4    13    14    1
     5    14    15    2
     6    15    16    1
     7    16    17    2
     8     1    17    1
     9     1     2    1
    10     2     3    1
    11     4     3    1
    12     4     5    1
    13     5     6    1
    14     4     7    1
    15     7     8    1
    16     8    23    1
    17    23    24   ar
    18    24    25   ar
    19    25    26   ar
    20    26    27   ar
    21    27    28   ar
    22     8     9   am
    23     9    10    2
    24     9    11    1
    25    17    18    1
    26    18    19    2
    27    19    20    1
    28    20    12    1
    29    19    15    1
    30     6     1    1
    31    28    23   ar
    32    11     4    1
@<TRIPOS>MOLECULE
*****
 28 32 0 0 0
SMALL
GASTEIGER

@<TRIPOS>ATOM
      1 C         140.2041  138.7685  161.7585 C.3     1  UNL1        0.1122
      2 C         139.0889  138.0059  162.4102 C.3     1  UNL1        0.0160
      3 C         138.7704  138.2341  163.8581 C.3     1  UNL1        0.0425
      4 C         139.5670  139.2248  164.6543 C.3     1  UNL1        0.1561
      5 C         140.6822  139.9874  164.0025 C.3     1  UNL1        0.0425
      6 C         141.0007  139.7592  162.5546 C.3     1  UNL1        0.0160
      7 C         140.2727  140.1779  165.5728 C.3     1  UNL1        0.1414
      8 N         139.6286  140.0820  166.9242 N.am    1  UNL1       -0.2215
      9 C         138.5248  139.0697  166.8408 C.2     1  UNL1        0.4086
     10 O         137.6183  138.6593  167.9631 O.2     1  UNL1       -0.2258
     11 O         138.4867  138.5399  165.4380 O.3     1  UNL1       -0.4398
     12 C         140.8334  137.8187  155.4098 C.2     1  UNL1        0.0547
     13 C         142.2959  137.7696  155.7393 C.2     1  UNL1        0.0103
     14 C         142.7513  137.9426  157.1580 C.2     1  UNL1        0.0505
     15 C         141.7442  138.1648  158.2472 C.2     1  UNL1        0.2318
     16 N         141.8931  138.3665  159.7261 N.2     1  UNL1       -0.0351
     17 C         140.5227  138.5404  160.3105 C.2     1  UNL1        0.3506
     18 N         139.5267  138.4460  159.1929 N.2     1  UNL1       -0.0389
     19 C         140.2816  138.2139  157.9176 C.2     1  UNL1        0.2181
     20 C         139.8262  138.0408  156.4990 C.3     1  UNL1        0.1144
     21 N         139.9226  137.4727  152.5724 N.1     1  UNL1       -0.1911
     22 C         140.3780  137.6457  153.9911 C.1     1  UNL1        0.0965
     23 C         140.0197  140.8616  168.1445 C.ar    1  UNL1        0.0571
     24 C         140.2424  142.3418  168.0494 C.ar    1  UNL1        0.0150
     25 C         140.6335  143.1214  169.2698 C.ar    1  UNL1        0.0013
     26 C         140.8018  142.4207  170.5853 C.ar    1  UNL1        0.0001
     27 C         140.5791  140.9404  170.6804 C.ar    1  UNL1        0.0013
     28 C         140.1880  140.1608  169.4600 C.ar    1  UNL1        0.0150
@<TRIPOS>BOND
     1    21    22    3
     2    22    12    1
     3    12    13    2
     4    13    14    1
     5    14    15    2
     6    15    16    1
     7    16    17    2
     8     1    17    1
     9     1     2    1
    10     2     3    1
    11     4     3    1
    12     4     5    1
    13     5     6    1
    14     4     7    1
    15     7     8    1
    16     8    23    1
    17    23    24   ar
    18    24    25   ar
    19    25    26   ar
    20    26    27   ar
    21    27    28   ar
    22     8     9   am
    23     9    10    2
    24     9    11    1
    25    17    18    1
    26    18    19    2
    27    19    20    1
    28    20    12    1
    29    19    15    1
    30     6     1    1
    31    28    23   ar
    32    11     4    1
@<TRIPOS>MOLECULE
*****
 28 32 0 0 0
SMALL
GASTEIGER

@<TRIPOS>ATOM
      1 C         140.5150  143.0785  162.9346 C.3     1  UNL1        0.1122
      2 C         141.5561  144.1022  162.5912 C.3     1  UNL1        0.0160
      3 C         141.6989  144.5814  161.1770 C.3     1  UNL1        0.0425
      4 C         140.8006  144.0369  160.1062 C.3     1  UNL1        0.1561
      5 C         139.7595  143.0132  160.4497 C.3     1  UNL1        0.0425
      6 C         139.6167  142.5340  161.8638 C.3     1  UNL1        0.0160
      7 C         139.9786  143.5860  158.9353 C.3     1  UNL1        0.1414
      8 N         140.4605  144.3216  157.7200 N.am    1  UNL1       -0.2215
      9 C         141.5803  145.2271  158.1399 C.2     1  UNL1        0.4086
     10 O         142.3540  146.1470  157.2427 O.2     1  UNL1       -0.2258
     11 O         141.7905  145.0511  159.6147 O.3     1  UNL1       -0.4398
     12 C         140.1846  141.6819  169.2230 C.2     1  UNL1        0.0547
     13 C         139.6254  140.3818  168.7260 C.2     1  UNL1        0.0103
     14 C         139.4696  140.1467  167.2527 C.2     1  UNL1        0.0505
     15 C         139.8728  141.2117  166.2765 C.2     1  UNL1        0.2318
     16 N         139.8359  141.2657  164.7780 N.2     1  UNL1       -0.0351
     17 C         140.3722  142.5992  164.3488 C.2     1  UNL1        0.3506
     18 N         140.7406  143.3694  165.5822 N.2     1  UNL1       -0.0389
     19 C         140.4320  142.5119  166.7736 C.2     1  UNL1        0.2181
     20 C         140.5878  142.7469  168.2468 C.3     1  UNL1        0.1144
     21 N         140.4962  142.1520  172.1696 N.1     1  UNL1       -0.1911
     22 C         140.3404  141.9169  170.6963 C.1     1  UNL1        0.0965
     23 C         139.9179  144.1771  156.3291 C.ar    1  UNL1        0.0571
     24 C         140.7351  143.4950  155.2724 C.ar    1  UNL1        0.0150
     25 C         140.1925  143.3505  153.8814 C.ar    1  UNL1        0.0013
     26 C         138.8326  143.8881  153.5473 C.ar    1  UNL1        0.0001
     27 C         138.0154  144.5703  154.6040 C.ar    1  UNL1        0.0013
     28 C         138.5580  144.7148  155.9949 C.ar    1  UNL1        0.0150
@<TRIPOS>BOND
     1    21    22    3
     2    22    12    1
     3    12    13    2
     4    13    14    1
     5    14    15    2
     6    15    16    1
     7    16    17    2
     8     1    17    1
     9     1     2    1
    10     2     3    1
    11     4     3    1
    12     4     5    1
    13     5     6    1
    14     4     7    1
    15     7     8    1
    16     8    23    1
    17    23    24   ar
    18    24    25   ar
    19    25    26   ar
    20    26    27   ar
    21    27    28   ar
    22     8     9   am
    23     9    10    2
    24     9    11    1
    25    17    18    1
    26    18    19    2
    27    19    20    1
    28    20    12    1
    29    19    15    1
    30     6     1    1
    31    28    23   ar
    32    11     4    1
@<TRIPOS>MOLECULE
*****
 28 32 0 0 0
SMALL
GASTEIGER

@<TRIPOS>ATOM
      1 C         141.5131  138.6771  161.6130 C.3     1  UNL1        0.1122
      2 C         142.5814  137.9889  162.4099 C.3     1  UNL1        0.0160
      3 C         142.7051  138.2506  163.8817 C.3     1  UNL1        0.0425
      4 C         141.7606  139.2006  164.5565 C.3     1  UNL1        0.1561
      5 C         140.6923  139.8888  163.7596 C.3     1  UNL1        0.0425
      6 C         140.5686  139.6271  162.2879 C.3     1  UNL1        0.0160
      7 C         140.8932  140.1197  165.3646 C.3     1  UNL1        0.1414
      8 N         141.3700  140.0764  166.7862 N.am    1  UNL1       -0.2215
      9 C         142.5321  139.1305  166.8567 C.2     1  UNL1        0.4086
     10 O         143.3153  138.7863  168.0888 O.2     1  UNL1       -0.2258
     11 O         142.7735  138.5893  165.4787 O.3     1  UNL1       -0.4398
     12 C         140.2447  137.6764  155.3685 C.2     1  UNL1        0.0547
     13 C         141.7239  137.4420  155.2857 C.2     1  UNL1        0.0103
     14 C         142.5708  137.5515  156.5190 C.2     1  UNL1        0.0505
     15 C         141.9384  137.8953  157.8350 C.2     1  UNL1        0.2318
     16 N         142.5133  138.0718  159.2092 N.2     1  UNL1       -0.0351
     17 C         141.3893  138.4153  160.1412 C.2     1  UNL1        0.3506
     18 N         140.1198  138.4511  159.3430 N.2     1  UNL1       -0.0389
     19 C         140.4591  138.1298  157.9177 C.2     1  UNL1        0.2181
     20 C         139.6123  138.0203  156.6845 C.3     1  UNL1        0.1144
     21 N         138.5509  137.4576  152.9020 N.1     1  UNL1       -0.1911
     22 C         139.3979  137.5670  154.1353 C.1     1  UNL1        0.0965
     23 C         140.7871  140.8441  167.9355 C.ar    1  UNL1        0.0571
     24 C         141.1811  142.2739  168.1591 C.ar    1  UNL1        0.0150
     25 C         140.5982  143.0416  169.3083 C.ar    1  UNL1        0.0013
     26 C         139.6212  142.3795  170.2340 C.ar    1  UNL1        0.0001
     27 C         139.2271  140.9495  170.0104 C.ar    1  UNL1        0.0013
     28 C         139.8101  140.1818  168.8612 C.ar    1  UNL1        0.0150
@<TRIPOS>BOND
     1    21    22    3
     2    22    12    1
     3    12    13    2
     4    13    14    1
     5    14    15    2
     6    15    16    1
     7    16    17    2
     8     1    17    1
     9     1     2    1
    10     2     3    1
    11     4     3    1
    12     4     5    1
    13     5     6    1
    14     4     7    1
    15     7     8    1
    16     8    23    1
    17    23    24   ar
    18    24    25   ar
    19    25    26   ar
    20    26    27   ar
    21    27    28   ar
    22     8     9   am
    23     9    10    2
    24     9    11    1
    25    17    18    1
    26    18    19    2
    27    19    20    1
    28    20    12    1
    29    19    15    1
    30     6     1    1
    31    28    23   ar
    32    11     4    1
