@<TRIPOS>MOLECULE
*****
 25 27 0 0 0
SMALL
GASTEIGER

@<TRIPOS>ATOM
      1 N         139.8009  140.1321  168.0017 N.ar    1  UNL1       -0.2075
      2 C         139.9717  139.6842  166.5804 C.ar    1  UNL1        0.1378
      3 C         138.8267  138.7771  166.2394 C.ar    1  UNL1        0.1713
      4 N         137.9483  138.6644  167.4501 N.ar    1  UNL1       -0.1135
      5 N         138.5504  139.5019  168.5392 N.ar    1  UNL1       -0.0583
      6 F         143.4748  143.8008  171.0090 F       1  UNL1       -0.2018
      7 C         142.5563  142.8836  170.2572 C.ar    1  UNL1        0.1675
      8 C         142.9872  141.4811  169.9453 C.ar    1  UNL1        0.0335
      9 C         142.0687  140.5640  169.1935 C.ar    1  UNL1        0.0217
     10 C         140.7194  141.0493  168.7535 C.ar    1  UNL1        0.0869
     11 C         140.2885  142.4518  169.0654 C.ar    1  UNL1        0.0511
     12 C         141.2069  143.3689  169.8172 C.ar    1  UNL1        0.1689
     13 F         140.7760  144.7715  170.1290 F       1  UNL1       -0.2017
     14 N         138.6001  138.1013  164.9196 N.pl3   1  UNL1       -0.3142
     15 H         138.2261  137.1911  164.8904 H       1  UNL1        0.1483
     16 C         138.9431  138.8125  163.6443 C.3     1  UNL1        0.1058
     17 C         138.1674  140.0281  163.2313 C.3     1  UNL1        0.0936
     18 N         138.6331  141.3920  163.6472 N.3     1  UNL1       -0.2709
     19 C         140.0708  141.7804  163.4683 C.3     1  UNL1        0.0778
     20 C         140.5365  143.1444  163.8842 C.3     1  UNL1        0.0839
     21 C         139.5645  144.1198  164.4788 C.3     1  UNL1        0.2666
     22 F         139.0268  145.3824  165.0844 F       1  UNL1       -0.2042
     23 F         140.8155  144.9467  164.5103 F       1  UNL1       -0.2042
     24 C         138.1267  143.7313  164.6576 C.3     1  UNL1        0.0839
     25 C         137.6610  142.3675  164.2418 C.3     1  UNL1        0.0778
@<TRIPOS>BOND
     1     6     7    1
     2     7     8   ar
     3     8     9   ar
     4     9    10   ar
     5    10     1    1
     6     1     2   ar
     7     2     3   ar
     8     3    14    1
     9    14    16    1
    10    16    17    1
    11    17    18    1
    12    18    19    1
    13    19    20    1
    14    20    21    1
    15    21    22    1
    16    21    23    1
    17    21    24    1
    18    24    25    1
    19     3     4   ar
    20     4     5   ar
    21    10    11   ar
    22    11    12   ar
    23    12    13    1
    24    12     7   ar
    25     5     1   ar
    26    25    18    1
    27    14    15    1
@<TRIPOS>MOLECULE
*****
 25 27 0 0 0
SMALL
GASTEIGER

@<TRIPOS>ATOM
      1 N         142.6287  139.9477  167.4446 N.ar    1  UNL1       -0.2075
      2 C         142.9947  140.2683  166.0257 C.ar    1  UNL1        0.1378
      3 C         143.8588  139.1571  165.5074 C.ar    1  UNL1        0.1713
      4 N         144.0269  138.1498  166.6060 N.ar    1  UNL1       -0.1135
      5 N         143.2667  138.6384  167.8033 N.ar    1  UNL1       -0.0583
      6 F         139.2129  143.3119  171.0521 F       1  UNL1       -0.2018
      7 C         140.0668  142.4709  170.1502 C.ar    1  UNL1        0.1675
      8 C         141.3999  142.9811  169.6893 C.ar    1  UNL1        0.0335
      9 C         142.2539  142.1400  168.7875 C.ar    1  UNL1        0.0217
     10 C         141.7747  140.7888  168.3465 C.ar    1  UNL1        0.0869
     11 C         140.4416  140.2786  168.8073 C.ar    1  UNL1        0.0511
     12 C         139.5877  141.1197  169.7092 C.ar    1  UNL1        0.1689
     13 F         138.2545  140.6094  170.1701 F       1  UNL1       -0.2017
     14 N         144.4508  139.0688  164.1320 N.pl3   1  UNL1       -0.3142
     15 H         145.4089  138.8718  164.0202 H       1  UNL1        0.1483
     16 C         143.5831  139.2808  162.9270 C.3     1  UNL1        0.1058
     17 C         142.3999  138.3901  162.6889 C.3     1  UNL1        0.0936
     18 N         141.1627  138.5478  163.5226 N.3     1  UNL1       -0.2709
     19 C         140.6693  137.4027  164.3563 C.3     1  UNL1        0.0778
     20 C         139.4322  137.5604  165.1899 C.3     1  UNL1        0.0839
     21 C         138.6886  138.8631  165.1897 C.3     1  UNL1        0.2666
     22 F         137.6482  139.8923  165.5186 F       1  UNL1       -0.2042
     23 F         137.8339  138.0754  166.1378 F       1  UNL1       -0.2042
     24 C         139.1821  140.0081  164.3558 C.3     1  UNL1        0.0839
     25 C         140.4192  139.8505  163.5222 C.3     1  UNL1        0.0778
@<TRIPOS>BOND
     1     6     7    1
     2     7     8   ar
     3     8     9   ar
     4     9    10   ar
     5    10     1    1
     6     1     2   ar
     7     2     3   ar
     8     3    14    1
     9    14    16    1
    10    16    17    1
    11    17    18    1
    12    18    19    1
    13    19    20    1
    14    20    21    1
    15    21    22    1
    16    21    23    1
    17    21    24    1
    18    24    25    1
    19     3     4   ar
    20     4     5   ar
    21    10    11   ar
    22    11    12   ar
    23    12    13    1
    24    12     7   ar
    25     5     1   ar
    26    25    18    1
    27    14    15    1
@<TRIPOS>MOLECULE
*****
 25 27 0 0 0
SMALL
GASTEIGER

@<TRIPOS>ATOM
      1 N         139.9704  139.8170  167.2517 N.ar    1  UNL1       -0.2075
      2 C         140.3345  139.3000  165.8915 C.ar    1  UNL1        0.1378
      3 C         139.2180  138.4179  165.4167 C.ar    1  UNL1        0.1713
      4 N         138.1639  138.3897  166.4835 N.ar    1  UNL1       -0.1135
      5 N         138.6290  139.2544  167.6176 N.ar    1  UNL1       -0.0583
      6 F         143.2962  143.4904  170.6348 F       1  UNL1       -0.2018
      7 C         142.4648  142.5720  169.7890 C.ar    1  UNL1        0.1675
      8 C         143.0051  141.2336  169.3810 C.ar    1  UNL1        0.0335
      9 C         142.1737  140.3152  168.5352 C.ar    1  UNL1        0.0217
     10 C         140.8019  140.7354  168.0975 C.ar    1  UNL1        0.0869
     11 C         140.2616  142.0738  168.5055 C.ar    1  UNL1        0.0511
     12 C         141.0930  142.9922  169.3513 C.ar    1  UNL1        0.1689
     13 F         140.5526  144.3307  169.7593 F       1  UNL1       -0.2017
     14 N         139.1650  137.6915  164.1054 N.pl3   1  UNL1       -0.3142
     15 H         139.1187  136.7083  164.0888 H       1  UNL1        0.1483
     16 C         139.1824  138.4633  162.8193 C.3     1  UNL1        0.1058
     17 C         137.9921  139.2848  162.4215 C.3     1  UNL1        0.0936
     18 N         137.9488  140.7488  162.7461 N.3     1  UNL1       -0.2709
     19 C         137.7657  141.1971  164.1657 C.3     1  UNL1        0.0778
     20 C         137.7225  142.6610  164.4902 C.3     1  UNL1        0.0839
     21 C         137.8624  143.6764  163.3951 C.3     1  UNL1        0.2666
     22 F         137.9491  145.0082  162.7104 F       1  UNL1       -0.2042
     23 F         137.7094  144.5873  164.5770 F       1  UNL1       -0.2042
     24 C         138.0455  143.2280  161.9755 C.3     1  UNL1        0.0839
     25 C         138.0887  141.7642  161.6509 C.3     1  UNL1        0.0778
@<TRIPOS>BOND
     1     6     7    1
     2     7     8   ar
     3     8     9   ar
     4     9    10   ar
     5    10     1    1
     6     1     2   ar
     7     2     3   ar
     8     3    14    1
     9    14    16    1
    10    16    17    1
    11    17    18    1
    12    18    19    1
    13    19    20    1
    14    20    21    1
    15    21    22    1
    16    21    23    1
    17    21    24    1
    18    24    25    1
    19     3     4   ar
    20     4     5   ar
    21    10    11   ar
    22    11    12   ar
    23    12    13    1
    24    12     7   ar
    25     5     1   ar
    26    25    18    1
    27    14    15    1
@<TRIPOS>MOLECULE
*****
 25 27 0 0 0
SMALL
GASTEIGER

@<TRIPOS>ATOM
      1 N         139.9075  140.3602  167.5475 N.ar    1  UNL1       -0.2075
      2 C         139.9763  140.2502  166.0531 C.ar    1  UNL1        0.1378
      3 C         138.9198  139.2817  165.6104 C.ar    1  UNL1        0.1713
      4 N         138.1981  138.7931  166.8312 N.ar    1  UNL1       -0.1135
      5 N         138.8085  139.4596  168.0283 N.ar    1  UNL1       -0.0583
      6 F         143.4128  143.7984  170.9959 F       1  UNL1       -0.2018
      7 C         142.5364  142.9389  170.1338 C.ar    1  UNL1        0.1675
      8 C         143.0199  141.5940  169.6783 C.ar    1  UNL1        0.0335
      9 C         142.1436  140.7344  168.8162 C.ar    1  UNL1        0.0217
     10 C         140.7838  141.2197  168.4096 C.ar    1  UNL1        0.0869
     11 C         140.3003  142.5646  168.8651 C.ar    1  UNL1        0.0511
     12 C         141.1766  143.4242  169.7272 C.ar    1  UNL1        0.1689
     13 F         140.6931  144.7691  170.1827 F       1  UNL1       -0.2017
     14 N         138.6352  138.8735  164.1954 N.pl3   1  UNL1       -0.3142
     15 H         137.9602  139.3599  163.6690 H       1  UNL1        0.1483
     16 C         139.3789  137.7242  163.5823 C.3     1  UNL1        0.1058
     17 C         140.6706  137.2589  164.1865 C.3     1  UNL1        0.0936
     18 N         141.9195  138.0694  164.0025 N.3     1  UNL1       -0.2709
     19 C         142.8366  138.3082  165.1651 C.3     1  UNL1        0.0778
     20 C         144.0854  139.1186  164.9809 C.3     1  UNL1        0.0839
     21 C         144.4170  139.6900  163.6343 C.3     1  UNL1        0.2666
     22 F         145.1562  140.4342  162.5621 F       1  UNL1       -0.2042
     23 F         145.5909  140.1874  164.4246 F       1  UNL1       -0.2042
     24 C         143.4997  139.4511  162.4717 C.3     1  UNL1        0.0839
     25 C         142.2510  138.6408  162.6558 C.3     1  UNL1        0.0778
@<TRIPOS>BOND
     1     6     7    1
     2     7     8   ar
     3     8     9   ar
     4     9    10   ar
     5    10     1    1
     6     1     2   ar
     7     2     3   ar
     8     3    14    1
     9    14    16    1
    10    16    17    1
    11    17    18    1
    12    18    19    1
    13    19    20    1
    14    20    21    1
    15    21    22    1
    16    21    23    1
    17    21    24    1
    18    24    25    1
    19     3     4   ar
    20     4     5   ar
    21    10    11   ar
    22    11    12   ar
    23    12    13    1
    24    12     7   ar
    25     5     1   ar
    26    25    18    1
    27    14    15    1
@<TRIPOS>MOLECULE
*****
 25 27 0 0 0
SMALL
GASTEIGER

@<TRIPOS>ATOM
      1 N         138.5158  141.8790  163.0995 N.ar    1  UNL1       -0.2075
      2 C         139.3362  142.2591  161.9026 C.ar    1  UNL1        0.1378
      3 C         138.9873  143.6697  161.5304 C.ar    1  UNL1        0.1713
      4 N         137.9513  144.1614  162.4973 N.ar    1  UNL1       -0.1135
      5 N         137.6599  143.0547  163.4670 N.ar    1  UNL1       -0.0583
      6 F         138.6368  136.5854  165.9213 F       1  UNL1       -0.2018
      7 C         138.6065  137.9088  165.2158 C.ar    1  UNL1        0.1675
      8 C         138.9055  137.9832  163.7478 C.ar    1  UNL1        0.0335
      9 C         138.8753  139.3066  163.0424 C.ar    1  UNL1        0.0217
     10 C         138.5461  140.5556  163.8049 C.ar    1  UNL1        0.0869
     11 C         138.2471  140.4812  165.2729 C.ar    1  UNL1        0.0511
     12 C         138.2773  139.1578  165.9783 C.ar    1  UNL1        0.1689
     13 F         137.9783  139.0834  167.4464 F       1  UNL1       -0.2017
     14 N         139.5718  144.4513  160.3914 N.pl3   1  UNL1       -0.3142
     15 H         139.0828  144.5207  159.5398 H       1  UNL1        0.1483
     16 C         140.9015  145.1272  160.5499 C.3     1  UNL1        0.1058
     17 C         142.1674  144.3378  160.3938 C.3     1  UNL1        0.0936
     18 N         142.9869  143.9883  161.6007 N.3     1  UNL1       -0.2709
     19 C         142.7754  144.7253  162.8899 C.3     1  UNL1        0.0778
     20 C         143.5950  144.3758  164.0967 C.3     1  UNL1        0.0839
     21 C         144.6259  143.2894  164.0142 C.3     1  UNL1        0.2666
     22 F         145.7147  142.3450  164.4296 F       1  UNL1       -0.2042
     23 F         144.7925  143.6984  165.4477 F       1  UNL1       -0.2042
     24 C         144.8373  142.5524  162.7250 C.3     1  UNL1        0.0839
     25 C         144.0179  142.9019  161.5182 C.3     1  UNL1        0.0778
@<TRIPOS>BOND
     1     6     7    1
     2     7     8   ar
     3     8     9   ar
     4     9    10   ar
     5    10     1    1
     6     1     2   ar
     7     2     3   ar
     8     3    14    1
     9    14    16    1
    10    16    17    1
    11    17    18    1
    12    18    19    1
    13    19    20    1
    14    20    21    1
    15    21    22    1
    16    21    23    1
    17    21    24    1
    18    24    25    1
    19     3     4   ar
    20     4     5   ar
    21    10    11   ar
    22    11    12   ar
    23    12    13    1
    24    12     7   ar
    25     5     1   ar
    26    25    18    1
    27    14    15    1
@<TRIPOS>MOLECULE
*****
 25 27 0 0 0
SMALL
GASTEIGER

@<TRIPOS>ATOM
      1 N         139.6423  142.3633  163.8083 N.ar    1  UNL1       -0.2075
      2 C         140.8314  143.1837  164.2121 C.ar    1  UNL1        0.1378
      3 C         140.7890  144.4711  163.4435 C.ar    1  UNL1        0.1713
      4 N         139.5736  144.4465  162.5647 N.ar    1  UNL1       -0.1135
      5 N         138.8650  143.1438  162.7901 N.ar    1  UNL1       -0.0583
      6 F         138.2413  136.9165  165.8986 F       1  UNL1       -0.2018
      7 C         138.5915  138.2782  165.3760 C.ar    1  UNL1        0.1675
      8 C         138.7715  139.4234  166.3279 C.ar    1  UNL1        0.0335
      9 C         139.1218  140.7851  165.8053 C.ar    1  UNL1        0.0217
     10 C         139.2920  141.0016  164.3309 C.ar    1  UNL1        0.0869
     11 C         139.1121  139.8565  163.3790 C.ar    1  UNL1        0.0511
     12 C         138.7618  138.4948  163.9015 C.ar    1  UNL1        0.1689
     13 F         138.5818  137.3495  162.9496 F       1  UNL1       -0.2017
     14 N         141.7867  145.5873  163.5374 N.pl3   1  UNL1       -0.3142
     15 H         141.4921  146.5209  163.4334 H       1  UNL1        0.1483
     16 C         143.2332  145.2809  163.7896 C.3     1  UNL1        0.1058
     17 C         144.0321  144.5352  162.7621 C.3     1  UNL1        0.0936
     18 N         144.2464  143.0575  162.9063 N.3     1  UNL1       -0.2709
     19 C         143.7175  142.1178  161.8637 C.3     1  UNL1        0.0778
     20 C         143.9318  140.6401  162.0079 C.3     1  UNL1        0.0839
     21 C         144.6749  140.1023  163.1946 C.3     1  UNL1        0.2666
     22 F         145.3111  139.1196  164.1325 F       1  UNL1       -0.2042
     23 F         144.3670  138.8213  162.4777 F       1  UNL1       -0.2042
     24 C         145.2038  141.0421  164.2373 C.3     1  UNL1        0.0839
     25 C         144.9895  142.5197  164.0931 C.3     1  UNL1        0.0778
@<TRIPOS>BOND
     1     6     7    1
     2     7     8   ar
     3     8     9   ar
     4     9    10   ar
     5    10     1    1
     6     1     2   ar
     7     2     3   ar
     8     3    14    1
     9    14    16    1
    10    16    17    1
    11    17    18    1
    12    18    19    1
    13    19    20    1
    14    20    21    1
    15    21    22    1
    16    21    23    1
    17    21    24    1
    18    24    25    1
    19     3     4   ar
    20     4     5   ar
    21    10    11   ar
    22    11    12   ar
    23    12    13    1
    24    12     7   ar
    25     5     1   ar
    26    25    18    1
    27    14    15    1
@<TRIPOS>MOLECULE
*****
 25 27 0 0 0
SMALL
GASTEIGER

@<TRIPOS>ATOM
      1 N         139.1724  139.8210  165.5239 N.ar    1  UNL1       -0.2075
      2 C         138.4338  140.4303  164.3692 C.ar    1  UNL1        0.1378
      3 C         138.2559  139.3712  163.3219 C.ar    1  UNL1        0.1713
      4 N         138.8846  138.1074  163.8293 N.ar    1  UNL1       -0.1135
      5 N         139.4510  138.3854  165.1902 N.ar    1  UNL1       -0.0583
      6 F         140.7376  142.6326  170.5880 F       1  UNL1       -0.2018
      7 C         140.3463  141.9297  169.3219 C.ar    1  UNL1        0.1675
      8 C         140.5796  142.5892  167.9951 C.ar    1  UNL1        0.0335
      9 C         140.1883  141.8863  166.7291 C.ar    1  UNL1        0.0217
     10 C         139.5637  140.5239  166.7899 C.ar    1  UNL1        0.0869
     11 C         139.3304  139.8644  168.1168 C.ar    1  UNL1        0.0511
     12 C         139.7217  140.5673  169.3828 C.ar    1  UNL1        0.1689
     13 F         139.4884  139.9078  170.7097 F       1  UNL1       -0.2017
     14 N         137.5698  139.5455  161.9995 N.pl3   1  UNL1       -0.3142
     15 H         136.6421  139.2377  161.8819 H       1  UNL1        0.1483
     16 C         138.2972  140.1886  160.8562 C.3     1  UNL1        0.1058
     17 C         138.2523  141.6777  160.6813 C.3     1  UNL1        0.0936
     18 N         138.7198  142.5772  161.7871 N.3     1  UNL1       -0.2709
     19 C         140.1838  142.6908  162.0930 C.3     1  UNL1        0.0778
     20 C         140.6512  143.5903  163.1988 C.3     1  UNL1        0.0839
     21 C         139.6546  144.3760  163.9984 C.3     1  UNL1        0.2666
     22 F         139.0995  145.3143  165.0286 F       1  UNL1       -0.2042
     23 F         140.9259  144.8155  164.6622 F       1  UNL1       -0.2042
     24 C         138.1906  144.2622  163.6924 C.3     1  UNL1        0.0839
     25 C         137.7232  143.3628  162.5867 C.3     1  UNL1        0.0778
@<TRIPOS>BOND
     1     6     7    1
     2     7     8   ar
     3     8     9   ar
     4     9    10   ar
     5    10     1    1
     6     1     2   ar
     7     2     3   ar
     8     3    14    1
     9    14    16    1
    10    16    17    1
    11    17    18    1
    12    18    19    1
    13    19    20    1
    14    20    21    1
    15    21    22    1
    16    21    23    1
    17    21    24    1
    18    24    25    1
    19     3     4   ar
    20     4     5   ar
    21    10    11   ar
    22    11    12   ar
    23    12    13    1
    24    12     7   ar
    25     5     1   ar
    26    25    18    1
    27    14    15    1
@<TRIPOS>MOLECULE
*****
 25 27 0 0 0
SMALL
GASTEIGER

@<TRIPOS>ATOM
      1 N         141.3052  139.2752  166.1799 N.ar    1  UNL1       -0.2075
      2 C         140.0072  139.0879  165.4518 C.ar    1  UNL1        0.1378
      3 C         140.2198  138.0574  164.3828 C.ar    1  UNL1        0.1713
      4 N         141.6492  137.6077  164.4502 N.ar    1  UNL1       -0.1135
      5 N         142.3200  138.3604  165.5608 N.ar    1  UNL1       -0.0583
      6 F         142.2687  143.0251  170.7635 F       1  UNL1       -0.2018
      7 C         142.0278  142.0876  169.6176 C.ar    1  UNL1        0.1675
      8 C         142.8288  140.8248  169.5006 C.ar    1  UNL1        0.0335
      9 C         142.5879  139.8874  168.3547 C.ar    1  UNL1        0.0217
     10 C         141.5461  140.2127  167.3258 C.ar    1  UNL1        0.0869
     11 C         140.7451  141.4755  167.4428 C.ar    1  UNL1        0.0511
     12 C         140.9860  142.4130  168.5887 C.ar    1  UNL1        0.1689
     13 F         140.1850  143.6758  168.7057 F       1  UNL1       -0.2017
     14 N         139.1847  137.5633  163.4161 N.pl3   1  UNL1       -0.3142
     15 H         138.6424  136.7720  163.6374 H       1  UNL1        0.1483
     16 C         138.9758  138.2748  162.1123 C.3     1  UNL1        0.1058
     17 C         137.7731  139.1502  161.9198 C.3     1  UNL1        0.0936
     18 N         137.8097  140.5830  162.3626 N.3     1  UNL1       -0.2709
     19 C         138.0600  141.6712  161.3613 C.3     1  UNL1        0.0778
     20 C         138.0966  143.1040  161.8041 C.3     1  UNL1        0.0839
     21 C         137.8829  143.4483  163.2483 C.3     1  UNL1        0.2666
     22 F         137.7387  144.2697  164.4952 F       1  UNL1       -0.2042
     23 F         138.0831  144.8219  162.6799 F       1  UNL1       -0.2042
     24 C         137.6325  142.3599  164.2497 C.3     1  UNL1        0.0839
     25 C         137.5959  140.9273  163.8069 C.3     1  UNL1        0.0778
@<TRIPOS>BOND
     1     6     7    1
     2     7     8   ar
     3     8     9   ar
     4     9    10   ar
     5    10     1    1
     6     1     2   ar
     7     2     3   ar
     8     3    14    1
     9    14    16    1
    10    16    17    1
    11    17    18    1
    12    18    19    1
    13    19    20    1
    14    20    21    1
    15    21    22    1
    16    21    23    1
    17    21    24    1
    18    24    25    1
    19     3     4   ar
    20     4     5   ar
    21    10    11   ar
    22    11    12   ar
    23    12    13    1
    24    12     7   ar
    25     5     1   ar
    26    25    18    1
    27    14    15    1
@<TRIPOS>MOLECULE
*****
 25 27 0 0 0
SMALL
GASTEIGER

@<TRIPOS>ATOM
      1 N         138.9367  141.8155  163.8772 N.ar    1  UNL1       -0.2075
      2 C         139.3468  142.7676  162.7931 C.ar    1  UNL1        0.1378
      3 C         138.5533  144.0296  162.9598 C.ar    1  UNL1        0.1713
      4 N         137.6526  143.8574  164.1469 N.ar    1  UNL1       -0.1135
      5 N         137.8896  142.4890  164.7138 N.ar    1  UNL1       -0.0583
      6 F         141.1038  136.2842  164.7190 F       1  UNL1       -0.2018
      7 C         140.5620  137.6670  164.5086 C.ar    1  UNL1        0.1675
      8 C         141.3728  138.6847  163.7624 C.ar    1  UNL1        0.0335
      9 C         140.8311  140.0675  163.5520 C.ar    1  UNL1        0.0217
     10 C         139.4784  140.4327  164.0877 C.ar    1  UNL1        0.0869
     11 C         138.6676  139.4150  164.8338 C.ar    1  UNL1        0.0511
     12 C         139.2094  138.0322  165.0443 C.ar    1  UNL1        0.1689
     13 F         138.3984  137.0145  165.7905 F       1  UNL1       -0.2017
     14 N         138.6444  145.2495  162.0918 N.pl3   1  UNL1       -0.3142
     15 H         137.8383  145.5987  161.6473 H       1  UNL1        0.1483
     16 C         139.9636  145.9373  161.9009 C.3     1  UNL1        0.1058
     17 C         141.0999  145.2111  161.2439 C.3     1  UNL1        0.0936
     18 N         142.2058  144.6368  162.0790 N.3     1  UNL1       -0.2709
     19 C         143.1402  143.6217  161.4906 C.3     1  UNL1        0.0778
     20 C         144.2461  143.0475  162.3258 C.3     1  UNL1        0.0839
     21 C         144.4175  143.4883  163.7492 C.3     1  UNL1        0.2666
     22 F         144.9813  143.5888  165.1355 F       1  UNL1       -0.2042
     23 F         145.5478  142.5081  163.6422 F       1  UNL1       -0.2042
     24 C         143.4829  144.5035  164.3375 C.3     1  UNL1        0.0839
     25 C         142.3771  145.0777  163.5025 C.3     1  UNL1        0.0778
@<TRIPOS>BOND
     1     6     7    1
     2     7     8   ar
     3     8     9   ar
     4     9    10   ar
     5    10     1    1
     6     1     2   ar
     7     2     3   ar
     8     3    14    1
     9    14    16    1
    10    16    17    1
    11    17    18    1
    12    18    19    1
    13    19    20    1
    14    20    21    1
    15    21    22    1
    16    21    23    1
    17    21    24    1
    18    24    25    1
    19     3     4   ar
    20     4     5   ar
    21    10    11   ar
    22    11    12   ar
    23    12    13    1
    24    12     7   ar
    25     5     1   ar
    26    25    18    1
    27    14    15    1
