@<TRIPOS>MOLECULE
*****
 37 39 0 0 0
SMALL
GASTEIGER

@<TRIPOS>ATOM
      1 C         138.0546  138.7680  166.9697 C.3     1  UNL1        0.0216
      2 C         139.0466  139.6902  166.3251 C.3     1  UNL1        0.0760
      3 N         138.5883  140.6906  165.3058 N.am    1  UNL1       -0.3028
      4 C         138.3890  140.2707  163.8796 C.2     1  UNL1        0.2587
      5 O         138.6481  138.8503  163.4728 O.2     1  UNL1       -0.2714
      6 H         138.4183  141.6228  165.5728 H       1  UNL1        0.1495
      7 C         137.9307  141.2711  162.8602 C.3     1  UNL1        0.2022
      8 C         137.6188  142.2457  163.9570 C.3     1  UNL1        0.0532
      9 C         138.2426  140.2966  161.7634 C.3     1  UNL1        0.0532
     10 O         137.4724  142.2716  161.8410 O.3     1  UNL1       -0.4586
     11 C         138.4784  143.0003  161.0001 C.ar    1  UNL1        0.2251
     12 C         139.5179  143.8624  161.6529 C.ar    1  UNL1        0.0577
     13 C         140.5238  144.5911  160.8120 C.ar    1  UNL1        0.0102
     14 C         140.4903  144.4576  159.3183 C.ar    1  UNL1        0.0907
     15 C         139.4509  143.5954  158.6655 C.ar    1  UNL1        0.1059
     16 N         138.4449  142.8668  159.5064 N.ar    1  UNL1       -0.2102
     17 C         141.4963  145.1863  158.4775 C.3     1  UNL1        0.4200
     18 F         142.5023  145.9149  157.6366 F       1  UNL1       -0.1658
     19 F         140.4371  146.1604  158.0543 F       1  UNL1       -0.1658
     20 F         142.5555  144.2121  158.9006 F       1  UNL1       -0.1658
     21 C         140.4969  139.6120  166.6999 C.3     1  UNL1        0.0446
     22 C         140.9844  140.2757  167.9536 C.ar    1  UNL1       -0.0199
     23 C         141.9926  139.5858  168.8241 C.ar    1  UNL1       -0.0042
     24 C         142.4802  140.2494  170.0778 C.ar    1  UNL1        0.0004
     25 C         141.9595  141.6029  170.4611 C.ar    1  UNL1        0.0103
     26 C         140.9514  142.2928  169.5906 C.ar    1  UNL1        0.0681
     27 C         140.4638  141.6292  168.3369 C.ar    1  UNL1        0.0061
     28 C         140.4307  143.6464  169.9740 C.1     1  UNL1        0.1004
     29 N         139.9101  144.9999  170.3572 N.1     1  UNL1       -0.1908
     30 C         141.4597  138.8701  165.8209 C.3     1  UNL1        0.0323
     31 C         142.5823  139.6051  165.1502 C.ar    1  UNL1       -0.0218
     32 C         143.9582  139.0084  165.1218 C.ar    1  UNL1       -0.0034
     33 C         145.0807  139.7434  164.4512 C.ar    1  UNL1        0.0111
     34 C         144.8273  141.0750  163.8090 C.ar    1  UNL1        0.0577
     35 CL        145.9499  141.8101  163.1384 Cl      1  UNL1       -0.0822
     36 C         143.4514  141.6718  163.8375 C.ar    1  UNL1        0.0111
     37 C         142.3289  140.9368  164.5081 C.ar    1  UNL1       -0.0034
@<TRIPOS>BOND
     1     2     1    1
     2     2     3    1
     3     3     4   am
     4     4     5    2
     5     4     7    1
     6     7     8    1
     7     7     9    1
     8     7    10    1
     9    10    11    1
    10    11    12   ar
    11    12    13   ar
    12    13    14   ar
    13    14    17    1
    14    17    18    1
    15    17    19    1
    16    17    20    1
    17    14    15   ar
    18    15    16   ar
    19     2    21    1
    20    21    30    1
    21    30    31    1
    22    31    32   ar
    23    32    33   ar
    24    33    34   ar
    25    34    35    1
    26    34    36   ar
    27    36    37   ar
    28    21    22    1
    29    22    23   ar
    30    23    24   ar
    31    24    25   ar
    32    25    26   ar
    33    26    28    1
    34    28    29    3
    35    26    27   ar
    36    16    11   ar
    37    37    31   ar
    38    27    22   ar
    39     3     6    1
@<TRIPOS>MOLECULE
*****
 37 39 0 0 0
SMALL
GASTEIGER

@<TRIPOS>ATOM
      1 C         143.0025  138.8996  165.3095 C.3     1  UNL1        0.0216
      2 C         141.9163  139.8973  165.5832 C.3     1  UNL1        0.0760
      3 N         141.8424  141.1639  164.7832 N.am    1  UNL1       -0.3028
      4 C         142.5102  142.4091  165.2867 C.2     1  UNL1        0.2587
      5 O         143.2520  142.3877  166.5902 O.2     1  UNL1       -0.2714
      6 H         141.3555  141.1780  163.9276 H       1  UNL1        0.1495
      7 C         142.4362  143.6758  164.4866 C.3     1  UNL1        0.2022
      8 C         143.9328  143.7744  164.5044 C.3     1  UNL1        0.0532
      9 C         140.9396  143.5772  164.4688 C.3     1  UNL1        0.0532
     10 O         142.3622  144.9424  163.6865 O.3     1  UNL1       -0.4586
     11 C         141.8273  144.9144  162.2854 C.ar    1  UNL1        0.2251
     12 C         140.5543  145.6351  161.9540 C.ar    1  UNL1        0.0577
     13 C         140.0195  145.6070  160.5529 C.ar    1  UNL1        0.0102
     14 C         140.7577  144.8582  159.4832 C.ar    1  UNL1        0.0907
     15 C         142.0307  144.1375  159.8145 C.ar    1  UNL1        0.1059
     16 N         142.5656  144.1656  161.2156 N.ar    1  UNL1       -0.2102
     17 C         140.2228  144.8302  158.0820 C.3     1  UNL1        0.4200
     18 F         139.6880  144.8022  156.6809 F       1  UNL1       -0.1658
     19 F         139.7241  143.4325  158.3003 F       1  UNL1       -0.1658
     20 F         140.7215  146.2278  157.8637 F       1  UNL1       -0.1658
     21 C         140.9041  139.6283  166.6570 C.3     1  UNL1        0.0446
     22 C         141.1835  140.0417  168.0716 C.ar    1  UNL1       -0.0199
     23 C         142.2710  139.3630  168.8505 C.ar    1  UNL1       -0.0042
     24 C         142.5504  139.7763  170.2650 C.ar    1  UNL1        0.0004
     25 C         141.7423  140.8684  170.9008 C.ar    1  UNL1        0.0103
     26 C         140.6547  141.5472  170.1219 C.ar    1  UNL1        0.0681
     27 C         140.3754  141.1338  168.7074 C.ar    1  UNL1        0.0061
     28 C         139.8466  142.6393  170.7577 C.1     1  UNL1        0.1004
     29 N         139.0385  143.7314  171.3935 N.1     1  UNL1       -0.1908
     30 C         139.6125  138.9459  166.3162 C.3     1  UNL1        0.0323
     31 C         139.0523  139.0507  164.9287 C.ar    1  UNL1       -0.0218
     32 C         139.1930  137.9020  163.9744 C.ar    1  UNL1       -0.0034
     33 C         138.6328  138.0066  162.5869 C.ar    1  UNL1        0.0111
     34 C         137.9318  139.2600  162.1537 C.ar    1  UNL1        0.0577
     35 CL        137.3716  139.3647  160.7662 Cl      1  UNL1       -0.0822
     36 C         137.7911  140.4087  163.1080 C.ar    1  UNL1        0.0111
     37 C         138.3513  140.3040  164.4955 C.ar    1  UNL1       -0.0034
@<TRIPOS>BOND
     1     2     1    1
     2     2     3    1
     3     3     4   am
     4     4     5    2
     5     4     7    1
     6     7     8    1
     7     7     9    1
     8     7    10    1
     9    10    11    1
    10    11    12   ar
    11    12    13   ar
    12    13    14   ar
    13    14    17    1
    14    17    18    1
    15    17    19    1
    16    17    20    1
    17    14    15   ar
    18    15    16   ar
    19     2    21    1
    20    21    30    1
    21    30    31    1
    22    31    32   ar
    23    32    33   ar
    24    33    34   ar
    25    34    35    1
    26    34    36   ar
    27    36    37   ar
    28    21    22    1
    29    22    23   ar
    30    23    24   ar
    31    24    25   ar
    32    25    26   ar
    33    26    28    1
    34    28    29    3
    35    26    27   ar
    36    16    11   ar
    37    37    31   ar
    38    27    22   ar
    39     3     6    1
@<TRIPOS>MOLECULE
*****
 37 39 0 0 0
SMALL
GASTEIGER

@<TRIPOS>ATOM
      1 C         137.6953  138.3624  166.7204 C.3     1  UNL1        0.0216
      2 C         138.5017  139.5468  166.2768 C.3     1  UNL1        0.0760
      3 N         138.0310  140.3862  165.1262 N.am    1  UNL1       -0.3028
      4 C         138.3227  139.9598  163.7180 C.2     1  UNL1        0.2587
      5 O         139.0850  138.6939  163.4603 O.2     1  UNL1       -0.2714
      6 H         137.5307  141.2171  165.2954 H       1  UNL1        0.1495
      7 C         137.8519  140.7993  162.5674 C.3     1  UNL1        0.2022
      8 C         138.3863  139.7802  161.6053 C.3     1  UNL1        0.0532
      9 C         137.3175  141.8184  163.5296 C.3     1  UNL1        0.0532
     10 O         137.3812  141.6387  161.4169 O.3     1  UNL1       -0.4586
     11 C         138.3383  142.5590  160.7190 C.ar    1  UNL1        0.2251
     12 C         138.5914  142.4033  159.2487 C.ar    1  UNL1        0.0577
     13 C         139.5485  143.3236  158.5509 C.ar    1  UNL1        0.0102
     14 C         140.2524  144.3997  159.3233 C.ar    1  UNL1        0.0907
     15 C         139.9992  144.5555  160.7935 C.ar    1  UNL1        0.1059
     16 N         139.0422  143.6351  161.4913 N.ar    1  UNL1       -0.2102
     17 C         141.2095  145.3200  158.6254 C.3     1  UNL1        0.4200
     18 F         142.1664  146.2404  157.9275 F       1  UNL1       -0.1658
     19 F         142.3502  144.4248  159.0090 F       1  UNL1       -0.1658
     20 F         140.0687  146.2153  158.2417 F       1  UNL1       -0.1658
     21 C         139.7789  139.8918  166.9837 C.3     1  UNL1        0.0446
     22 C         141.0481  140.0573  166.2014 C.ar    1  UNL1       -0.0199
     23 C         141.8780  138.8565  165.8558 C.ar    1  UNL1       -0.0042
     24 C         143.1471  139.0219  165.0736 C.ar    1  UNL1        0.0004
     25 C         143.5863  140.3880  164.6370 C.ar    1  UNL1        0.0103
     26 C         142.7565  141.5888  164.9826 C.ar    1  UNL1        0.0681
     27 C         141.4873  141.4234  165.7648 C.ar    1  UNL1        0.0061
     28 C         143.1958  142.9550  164.5459 C.1     1  UNL1        0.1004
     29 N         143.6351  144.3211  164.1093 N.1     1  UNL1       -0.1908
     30 C         139.7870  140.0714  168.4729 C.3     1  UNL1        0.0323
     31 C         140.7589  141.0208  169.1086 C.ar    1  UNL1       -0.0218
     32 C         142.1104  140.5335  169.5398 C.ar    1  UNL1       -0.0034
     33 C         143.0823  141.4828  170.1754 C.ar    1  UNL1        0.0111
     34 C         142.7028  142.9195  170.3799 C.ar    1  UNL1        0.0577
     35 CL        143.6747  143.8689  171.0155 Cl      1  UNL1       -0.0822
     36 C         141.3513  143.4068  169.9487 C.ar    1  UNL1        0.0111
     37 C         140.3793  142.4575  169.3130 C.ar    1  UNL1       -0.0034
@<TRIPOS>BOND
     1     2     1    1
     2     2     3    1
     3     3     4   am
     4     4     5    2
     5     4     7    1
     6     7     8    1
     7     7     9    1
     8     7    10    1
     9    10    11    1
    10    11    12   ar
    11    12    13   ar
    12    13    14   ar
    13    14    17    1
    14    17    18    1
    15    17    19    1
    16    17    20    1
    17    14    15   ar
    18    15    16   ar
    19     2    21    1
    20    21    30    1
    21    30    31    1
    22    31    32   ar
    23    32    33   ar
    24    33    34   ar
    25    34    35    1
    26    34    36   ar
    27    36    37   ar
    28    21    22    1
    29    22    23   ar
    30    23    24   ar
    31    24    25   ar
    32    25    26   ar
    33    26    28    1
    34    28    29    3
    35    26    27   ar
    36    16    11   ar
    37    37    31   ar
    38    27    22   ar
    39     3     6    1
@<TRIPOS>MOLECULE
*****
 37 39 0 0 0
SMALL
GASTEIGER

@<TRIPOS>ATOM
      1 C         143.6720  138.7358  165.6501 C.3     1  UNL1        0.0216
      2 C         142.8381  139.8263  165.0457 C.3     1  UNL1        0.0760
      3 N         142.5141  139.7986  163.5814 N.am    1  UNL1       -0.3028
      4 C         143.4872  140.3594  162.5872 C.2     1  UNL1        0.2587
      5 O         144.7844  140.9479  163.0572 O.2     1  UNL1       -0.2714
      6 H         141.6627  139.4123  163.2729 H       1  UNL1        0.1495
      7 C         143.1631  140.3316  161.1228 C.3     1  UNL1        0.2022
      8 C         144.1187  139.1911  160.9330 C.3     1  UNL1        0.0532
      9 C         142.2075  141.4721  161.3126 C.3     1  UNL1        0.0532
     10 O         142.8391  140.3038  159.6585 O.3     1  UNL1       -0.4586
     11 C         143.8459  140.7895  158.6582 C.ar    1  UNL1        0.2251
     12 C         144.5021  142.1256  158.8427 C.ar    1  UNL1        0.0577
     13 C         145.5088  142.6112  157.8424 C.ar    1  UNL1        0.0102
     14 C         145.8593  141.7606  156.6576 C.ar    1  UNL1        0.0907
     15 C         145.2031  140.4245  156.4731 C.ar    1  UNL1        0.1059
     16 N         144.1964  139.9389  157.4734 N.ar    1  UNL1       -0.2102
     17 C         146.8661  142.2463  155.6572 C.3     1  UNL1        0.4200
     18 F         147.8728  142.7319  154.6569 F       1  UNL1       -0.1658
     19 F         147.4480  143.1661  156.6894 F       1  UNL1       -0.1658
     20 F         146.2843  141.3265  154.6251 F       1  UNL1       -0.1658
     21 C         142.3282  140.9446  165.9056 C.3     1  UNL1        0.0446
     22 C         141.2736  140.6760  166.9379 C.ar    1  UNL1       -0.0199
     23 C         140.0836  139.8308  166.5921 C.ar    1  UNL1       -0.0042
     24 C         139.0290  139.5622  167.6244 C.ar    1  UNL1        0.0004
     25 C         139.1644  140.1387  169.0025 C.ar    1  UNL1        0.0103
     26 C         140.3544  140.9838  169.3483 C.ar    1  UNL1        0.0681
     27 C         141.4090  141.2525  168.3161 C.ar    1  UNL1        0.0061
     28 C         140.4898  141.5603  170.7265 C.1     1  UNL1        0.1004
     29 N         140.6252  142.1368  172.1047 N.1     1  UNL1       -0.1908
     30 C         142.8729  142.3315  165.7332 C.3     1  UNL1        0.0323
     31 C         142.1864  143.2980  164.8140 C.ar    1  UNL1       -0.0218
     32 C         142.9867  144.0810  163.8157 C.ar    1  UNL1       -0.0034
     33 C         142.3003  145.0474  162.8965 C.ar    1  UNL1        0.0111
     34 C         140.8137  145.2308  162.9756 C.ar    1  UNL1        0.0577
     35 CL        140.1273  146.1972  162.0564 Cl      1  UNL1       -0.0822
     36 C         140.0135  144.4478  163.9738 C.ar    1  UNL1        0.0111
     37 C         140.6998  143.4814  164.8930 C.ar    1  UNL1       -0.0034
@<TRIPOS>BOND
     1     2     1    1
     2     2     3    1
     3     3     4   am
     4     4     5    2
     5     4     7    1
     6     7     8    1
     7     7     9    1
     8     7    10    1
     9    10    11    1
    10    11    12   ar
    11    12    13   ar
    12    13    14   ar
    13    14    17    1
    14    17    18    1
    15    17    19    1
    16    17    20    1
    17    14    15   ar
    18    15    16   ar
    19     2    21    1
    20    21    30    1
    21    30    31    1
    22    31    32   ar
    23    32    33   ar
    24    33    34   ar
    25    34    35    1
    26    34    36   ar
    27    36    37   ar
    28    21    22    1
    29    22    23   ar
    30    23    24   ar
    31    24    25   ar
    32    25    26   ar
    33    26    28    1
    34    28    29    3
    35    26    27   ar
    36    16    11   ar
    37    37    31   ar
    38    27    22   ar
    39     3     6    1
@<TRIPOS>MOLECULE
*****
 37 39 0 0 0
SMALL
GASTEIGER

@<TRIPOS>ATOM
      1 C         138.3550  143.5075  164.4427 C.3     1  UNL1        0.0216
      2 C         139.5555  142.9129  163.7680 C.3     1  UNL1        0.0760
      3 N         139.9215  143.3383  162.3770 N.am    1  UNL1       -0.3028
      4 C         140.8305  144.5128  162.1666 C.2     1  UNL1        0.2587
      5 O         141.3735  145.2619  163.3472 O.2     1  UNL1       -0.2714
      6 H         139.5651  142.8466  161.6021 H       1  UNL1        0.1495
      7 C         141.1966  144.9381  160.7755 C.3     1  UNL1        0.2022
      8 C         142.2787  143.9000  160.7428 C.3     1  UNL1        0.0532
      9 C         140.1144  145.9763  160.8081 C.3     1  UNL1        0.0532
     10 O         141.5626  145.3635  159.3844 O.3     1  UNL1       -0.4586
     11 C         140.6113  145.1191  158.2506 C.ar    1  UNL1        0.2251
     12 C         140.3918  146.1805  157.2137 C.ar    1  UNL1        0.0577
     13 C         139.4406  145.9360  156.0800 C.ar    1  UNL1        0.0102
     14 C         138.7089  144.6302  155.9832 C.ar    1  UNL1        0.0907
     15 C         138.9284  143.5688  157.0200 C.ar    1  UNL1        0.1059
     16 N         139.8797  143.8132  158.1538 N.ar    1  UNL1       -0.2102
     17 C         137.7576  144.3858  154.8494 C.3     1  UNL1        0.4200
     18 F         136.8064  144.1413  153.7156 F       1  UNL1       -0.1658
     19 F         137.3727  145.8355  154.8598 F       1  UNL1       -0.1658
     20 F         138.1426  142.9361  154.8389 F       1  UNL1       -0.1658
     21 C         140.3899  141.8928  164.4843 C.3     1  UNL1        0.0446
     22 C         139.9161  140.4732  164.5853 C.ar    1  UNL1       -0.0199
     23 C         140.3756  139.4561  163.5831 C.ar    1  UNL1       -0.0042
     24 C         139.9018  138.0365  163.6840 C.ar    1  UNL1        0.0004
     25 C         138.9685  137.6340  164.7871 C.ar    1  UNL1        0.0103
     26 C         138.5089  138.6511  165.7892 C.ar    1  UNL1        0.0681
     27 C         138.9827  140.0707  165.6883 C.ar    1  UNL1        0.0061
     28 C         137.5755  138.2486  166.8923 C.1     1  UNL1        0.1004
     29 N         136.6421  137.8460  167.9954 N.1     1  UNL1       -0.1908
     30 C         141.6983  142.2923  165.0997 C.3     1  UNL1        0.0323
     31 C         141.8244  142.3985  166.5907 C.ar    1  UNL1       -0.0218
     32 C         140.6309  142.7700  167.4198 C.ar    1  UNL1       -0.0034
     33 C         140.7570  142.8762  168.9106 C.ar    1  UNL1        0.0111
     34 C         142.0767  142.6108  169.5724 C.ar    1  UNL1        0.0577
     35 CL        142.2028  142.7170  171.0634 Cl      1  UNL1       -0.0822
     36 C         143.2702  142.2394  168.7433 C.ar    1  UNL1        0.0111
     37 C         143.1441  142.1332  167.2524 C.ar    1  UNL1       -0.0034
@<TRIPOS>BOND
     1     2     1    1
     2     2     3    1
     3     3     4   am
     4     4     5    2
     5     4     7    1
     6     7     8    1
     7     7     9    1
     8     7    10    1
     9    10    11    1
    10    11    12   ar
    11    12    13   ar
    12    13    14   ar
    13    14    17    1
    14    17    18    1
    15    17    19    1
    16    17    20    1
    17    14    15   ar
    18    15    16   ar
    19     2    21    1
    20    21    30    1
    21    30    31    1
    22    31    32   ar
    23    32    33   ar
    24    33    34   ar
    25    34    35    1
    26    34    36   ar
    27    36    37   ar
    28    21    22    1
    29    22    23   ar
    30    23    24   ar
    31    24    25   ar
    32    25    26   ar
    33    26    28    1
    34    28    29    3
    35    26    27   ar
    36    16    11   ar
    37    37    31   ar
    38    27    22   ar
    39     3     6    1
@<TRIPOS>MOLECULE
*****
 37 39 0 0 0
SMALL
GASTEIGER

@<TRIPOS>ATOM
      1 C         143.0081  138.4891  165.7227 C.3     1  UNL1        0.0216
      2 C         142.0212  139.6186  165.7043 C.3     1  UNL1        0.0760
      3 N         142.1175  140.6816  164.6505 N.am    1  UNL1       -0.3028
      4 C         142.8444  141.9613  164.9403 C.2     1  UNL1        0.2587
      5 O         143.4750  142.1779  166.2840 O.2     1  UNL1       -0.2714
      6 H         141.7036  140.5395  163.7686 H       1  UNL1        0.1495
      7 C         142.9407  143.0244  163.8864 C.3     1  UNL1        0.2022
      8 C         144.2515  143.4744  164.4602 C.3     1  UNL1        0.0532
      9 C         141.6299  142.5745  163.3127 C.3     1  UNL1        0.0532
     10 O         143.0370  144.0875  162.8326 O.3     1  UNL1       -0.4586
     11 C         143.2421  143.7040  161.3970 C.ar    1  UNL1        0.2251
     12 C         144.3598  142.7772  161.0205 C.ar    1  UNL1        0.0577
     13 C         144.5648  142.3938  159.5850 C.ar    1  UNL1        0.0102
     14 C         143.6521  142.9372  158.5258 C.ar    1  UNL1        0.0907
     15 C         142.5345  143.8640  158.9023 C.ar    1  UNL1        0.1059
     16 N         142.3294  144.2474  160.3378 N.ar    1  UNL1       -0.2102
     17 C         143.8572  142.5537  157.0902 C.3     1  UNL1        0.4200
     18 F         144.0622  142.1703  155.6546 F       1  UNL1       -0.1658
     19 F         145.3163  142.3315  157.3579 F       1  UNL1       -0.1658
     20 F         142.3981  142.7759  156.8225 F       1  UNL1       -0.1658
     21 C         140.9379  139.6850  166.7398 C.3     1  UNL1        0.0446
     22 C         141.2145  140.3086  168.0757 C.ar    1  UNL1       -0.0199
     23 C         142.0267  139.5671  169.0958 C.ar    1  UNL1       -0.0042
     24 C         142.3033  140.1907  170.4317 C.ar    1  UNL1        0.0004
     25 C         141.7678  141.5558  170.7474 C.ar    1  UNL1        0.0103
     26 C         140.9557  142.2973  169.7273 C.ar    1  UNL1        0.0681
     27 C         140.6790  141.6737  168.3915 C.ar    1  UNL1        0.0061
     28 C         140.4202  143.6624  170.0431 C.1     1  UNL1        0.1004
     29 N         139.8847  145.0275  170.3589 N.1     1  UNL1       -0.1908
     30 C         139.5781  139.1277  166.4394 C.3     1  UNL1        0.0323
     31 C         139.0262  139.2064  165.0467 C.ar    1  UNL1       -0.0218
     32 C         139.1122  138.0164  164.1376 C.ar    1  UNL1       -0.0034
     33 C         138.5604  138.0951  162.7450 C.ar    1  UNL1        0.0111
     34 C         137.9225  139.3637  162.2617 C.ar    1  UNL1        0.0577
     35 CL        137.3706  139.4424  160.8690 Cl      1  UNL1       -0.0822
     36 C         137.8365  140.5537  163.1708 C.ar    1  UNL1        0.0111
     37 C         138.3883  140.4750  164.5634 C.ar    1  UNL1       -0.0034
@<TRIPOS>BOND
     1     2     1    1
     2     2     3    1
     3     3     4   am
     4     4     5    2
     5     4     7    1
     6     7     8    1
     7     7     9    1
     8     7    10    1
     9    10    11    1
    10    11    12   ar
    11    12    13   ar
    12    13    14   ar
    13    14    17    1
    14    17    18    1
    15    17    19    1
    16    17    20    1
    17    14    15   ar
    18    15    16   ar
    19     2    21    1
    20    21    30    1
    21    30    31    1
    22    31    32   ar
    23    32    33   ar
    24    33    34   ar
    25    34    35    1
    26    34    36   ar
    27    36    37   ar
    28    21    22    1
    29    22    23   ar
    30    23    24   ar
    31    24    25   ar
    32    25    26   ar
    33    26    28    1
    34    28    29    3
    35    26    27   ar
    36    16    11   ar
    37    37    31   ar
    38    27    22   ar
    39     3     6    1
@<TRIPOS>MOLECULE
*****
 37 39 0 0 0
SMALL
GASTEIGER

@<TRIPOS>ATOM
      1 C         140.5980  137.4865  164.8986 C.3     1  UNL1        0.0216
      2 C         141.0071  138.9158  164.6997 C.3     1  UNL1        0.0760
      3 N         140.3464  139.7443  163.6381 N.am    1  UNL1       -0.3028
      4 C         139.0851  140.4944  163.9486 C.2     1  UNL1        0.2587
      5 O         138.4845  140.4161  165.3208 O.2     1  UNL1       -0.2714
      6 H         140.7406  139.7957  162.7374 H       1  UNL1        0.1495
      7 C         138.4245  141.3229  162.8868 C.3     1  UNL1        0.2022
      8 C         137.7525  142.1448  163.9464 C.3     1  UNL1        0.0532
      9 C         139.0965  140.5009  161.8273 C.3     1  UNL1        0.0532
     10 O         137.7639  142.1513  161.8251 O.3     1  UNL1       -0.4586
     11 C         138.5960  142.9993  160.9094 C.ar    1  UNL1        0.2251
     12 C         138.6568  142.6841  159.4442 C.ar    1  UNL1        0.0577
     13 C         139.4889  143.5320  158.5285 C.ar    1  UNL1        0.0102
     14 C         140.2602  144.6952  159.0780 C.ar    1  UNL1        0.0907
     15 C         140.1994  145.0105  160.5432 C.ar    1  UNL1        0.1059
     16 N         139.3673  144.1625  161.4589 N.ar    1  UNL1       -0.2102
     17 C         141.0923  145.5432  158.1623 C.3     1  UNL1        0.4200
     18 F         141.9244  146.3912  157.2466 F       1  UNL1       -0.1658
     19 F         142.2792  144.6652  158.4276 F       1  UNL1       -0.1658
     20 F         139.9055  146.4213  157.8969 F       1  UNL1       -0.1658
     21 C         142.0767  139.5168  165.5626 C.3     1  UNL1        0.0446
     22 C         143.1386  140.3803  164.9486 C.ar    1  UNL1       -0.0199
     23 C         144.4136  139.7637  164.4543 C.ar    1  UNL1       -0.0042
     24 C         145.4755  140.6270  163.8403 C.ar    1  UNL1        0.0004
     25 C         145.2624  142.1070  163.7207 C.ar    1  UNL1        0.0103
     26 C         143.9874  142.7235  164.2150 C.ar    1  UNL1        0.0681
     27 C         142.9256  141.8602  164.8290 C.ar    1  UNL1        0.0061
     28 C         143.7744  144.2036  164.0954 C.1     1  UNL1        0.1004
     29 N         143.5613  145.6835  163.9758 N.1     1  UNL1       -0.1908
     30 C         142.0846  139.2544  167.0394 C.3     1  UNL1        0.0323
     31 C         141.4595  140.2417  167.9800 C.ar    1  UNL1       -0.0218
     32 C         140.0884  139.9868  168.5323 C.ar    1  UNL1       -0.0034
     33 C         139.4632  140.9740  169.4728 C.ar    1  UNL1        0.0111
     34 C         140.2092  142.2161  169.8609 C.ar    1  UNL1        0.0577
     35 CL        139.5841  143.2034  170.8015 Cl      1  UNL1       -0.0822
     36 C         141.5803  142.4710  169.3086 C.ar    1  UNL1        0.0111
     37 C         142.2055  141.4837  168.3681 C.ar    1  UNL1       -0.0034
@<TRIPOS>BOND
     1     2     1    1
     2     2     3    1
     3     3     4   am
     4     4     5    2
     5     4     7    1
     6     7     8    1
     7     7     9    1
     8     7    10    1
     9    10    11    1
    10    11    12   ar
    11    12    13   ar
    12    13    14   ar
    13    14    17    1
    14    17    18    1
    15    17    19    1
    16    17    20    1
    17    14    15   ar
    18    15    16   ar
    19     2    21    1
    20    21    30    1
    21    30    31    1
    22    31    32   ar
    23    32    33   ar
    24    33    34   ar
    25    34    35    1
    26    34    36   ar
    27    36    37   ar
    28    21    22    1
    29    22    23   ar
    30    23    24   ar
    31    24    25   ar
    32    25    26   ar
    33    26    28    1
    34    28    29    3
    35    26    27   ar
    36    16    11   ar
    37    37    31   ar
    38    27    22   ar
    39     3     6    1
@<TRIPOS>MOLECULE
*****
 37 39 0 0 0
SMALL
GASTEIGER

@<TRIPOS>ATOM
      1 C         143.5407  138.4574  166.5035 C.3     1  UNL1        0.0216
      2 C         142.7952  139.4545  165.6669 C.3     1  UNL1        0.0760
      3 N         142.2744  139.0603  164.3166 N.am    1  UNL1       -0.3028
      4 C         140.9285  138.4097  164.1925 C.2     1  UNL1        0.2587
      5 O         140.1035  138.1533  165.4187 O.2     1  UNL1       -0.2714
      6 H         142.8159  139.2286  163.5118 H       1  UNL1        0.1495
      7 C         140.4077  138.0156  162.8421 C.3     1  UNL1        0.2022
      8 C         139.0967  137.6296  163.4605 C.3     1  UNL1        0.0532
      9 C         141.7186  138.4015  162.2238 C.3     1  UNL1        0.0532
     10 O         139.8868  137.6214  161.4918 O.3     1  UNL1       -0.4586
     11 C         139.3941  138.6725  160.5419 C.ar    1  UNL1        0.2251
     12 C         138.5926  139.8316  161.0558 C.ar    1  UNL1        0.0577
     13 C         138.0999  140.8826  160.1058 C.ar    1  UNL1        0.0102
     14 C         138.4088  140.7747  158.6419 C.ar    1  UNL1        0.0907
     15 C         139.2103  139.6157  158.1280 C.ar    1  UNL1        0.1059
     16 N         139.7030  138.5646  159.0780 N.ar    1  UNL1       -0.2102
     17 C         137.9161  141.8258  157.6919 C.3     1  UNL1        0.4200
     18 F         137.4234  142.8769  156.7420 F       1  UNL1       -0.1658
     19 F         138.0285  142.8574  158.7750 F       1  UNL1       -0.1658
     20 F         137.8037  140.7943  156.6088 F       1  UNL1       -0.1658
     21 C         142.5706  140.8458  166.1804 C.3     1  UNL1        0.0446
     22 C         142.1753  141.0625  167.6111 C.ar    1  UNL1       -0.0199
     23 C         143.1071  141.7733  168.5473 C.ar    1  UNL1       -0.0042
     24 C         142.7119  141.9900  169.9779 C.ar    1  UNL1        0.0004
     25 C         141.3848  141.4958  170.4724 C.ar    1  UNL1        0.0103
     26 C         140.4530  140.7850  169.5363 C.ar    1  UNL1        0.0681
     27 C         140.8482  140.5683  168.1056 C.ar    1  UNL1        0.0061
     28 C         139.1258  140.2908  170.0308 C.1     1  UNL1        0.1004
     29 N         137.7987  139.7967  170.5254 N.1     1  UNL1       -0.1908
     30 C         142.7413  142.0205  165.2634 C.3     1  UNL1        0.0323
     31 C         141.5378  142.6823  164.6603 C.ar    1  UNL1       -0.0218
     32 C         140.2432  141.9320  164.5552 C.ar    1  UNL1       -0.0034
     33 C         139.0397  142.5937  163.9522 C.ar    1  UNL1        0.0111
     34 C         139.1308  144.0057  163.4543 C.ar    1  UNL1        0.0577
     35 CL        137.9272  144.6675  162.8512 Cl      1  UNL1       -0.0822
     36 C         140.4254  144.7560  163.5594 C.ar    1  UNL1        0.0111
     37 C         141.6289  144.0942  164.1624 C.ar    1  UNL1       -0.0034
@<TRIPOS>BOND
     1     2     1    1
     2     2     3    1
     3     3     4   am
     4     4     5    2
     5     4     7    1
     6     7     8    1
     7     7     9    1
     8     7    10    1
     9    10    11    1
    10    11    12   ar
    11    12    13   ar
    12    13    14   ar
    13    14    17    1
    14    17    18    1
    15    17    19    1
    16    17    20    1
    17    14    15   ar
    18    15    16   ar
    19     2    21    1
    20    21    30    1
    21    30    31    1
    22    31    32   ar
    23    32    33   ar
    24    33    34   ar
    25    34    35    1
    26    34    36   ar
    27    36    37   ar
    28    21    22    1
    29    22    23   ar
    30    23    24   ar
    31    24    25   ar
    32    25    26   ar
    33    26    28    1
    34    28    29    3
    35    26    27   ar
    36    16    11   ar
    37    37    31   ar
    38    27    22   ar
    39     3     6    1
@<TRIPOS>MOLECULE
*****
 37 39 0 0 0
SMALL
GASTEIGER

@<TRIPOS>ATOM
      1 C         141.6655  138.6152  165.8238 C.3     1  UNL1        0.0216
      2 C         141.2094  139.9637  165.3508 C.3     1  UNL1        0.0760
      3 N         141.8693  140.6058  164.1667 N.am    1  UNL1       -0.3028
      4 C         143.0987  141.4442  164.3563 C.2     1  UNL1        0.2587
      5 O         143.6681  141.6403  165.7301 O.2     1  UNL1       -0.2714
      6 H         141.4956  140.4771  163.2650 H       1  UNL1        0.1495
      7 C         143.7586  142.0863  163.1721 C.3     1  UNL1        0.2022
      8 C         144.0983  143.2829  164.0104 C.3     1  UNL1        0.0532
      9 C         143.4189  140.8898  162.3339 C.3     1  UNL1        0.0532
     10 O         144.4184  142.7285  161.9880 O.3     1  UNL1       -0.4586
     11 C         143.5908  143.1785  160.8207 C.ar    1  UNL1        0.2251
     12 C         142.3224  143.9451  161.0518 C.ar    1  UNL1        0.0577
     13 C         141.4948  144.3950  159.8845 C.ar    1  UNL1        0.0102
     14 C         141.9356  144.0783  158.4861 C.ar    1  UNL1        0.0907
     15 C         143.2040  143.3117  158.2551 C.ar    1  UNL1        0.1059
     16 N         144.0316  142.8618  159.4224 N.ar    1  UNL1       -0.2102
     17 C         141.1079  144.5283  157.3188 C.3     1  UNL1        0.4200
     18 F         140.2803  144.9782  156.1515 F       1  UNL1       -0.1658
     19 F         140.7472  145.7826  158.0580 F       1  UNL1       -0.1658
     20 F         141.4687  143.2740  156.5796 F       1  UNL1       -0.1658
     21 C         140.0935  140.6700  166.0619 C.3     1  UNL1        0.0446
     22 C         140.1493  140.8531  167.5497 C.ar    1  UNL1       -0.0199
     23 C         139.1907  140.1110  168.4331 C.ar    1  UNL1       -0.0042
     24 C         139.2464  140.2941  169.9208 C.ar    1  UNL1        0.0004
     25 C         140.2608  141.2192  170.5251 C.ar    1  UNL1        0.0103
     26 C         141.2194  141.9612  169.6417 C.ar    1  UNL1        0.0681
     27 C         141.1636  141.7782  168.1540 C.ar    1  UNL1        0.0061
     28 C         142.2338  142.8864  170.2460 C.1     1  UNL1        0.1004
     29 N         143.2481  143.8115  170.8503 N.1     1  UNL1       -0.1908
     30 C         138.9217  141.1932  165.2853 C.3     1  UNL1        0.0323
     31 C         139.0529  142.4593  164.4916 C.ar    1  UNL1       -0.0218
     32 C         138.2125  142.6671  163.2666 C.ar    1  UNL1       -0.0034
     33 C         138.3437  143.9330  162.4729 C.ar    1  UNL1        0.0111
     34 C         139.3154  144.9912  162.9042 C.ar    1  UNL1        0.0577
     35 CL        139.4467  146.2573  162.1104 Cl      1  UNL1       -0.0822
     36 C         140.1559  144.7834  164.1291 C.ar    1  UNL1        0.0111
     37 C         140.0246  143.5174  164.9228 C.ar    1  UNL1       -0.0034
@<TRIPOS>BOND
     1     2     1    1
     2     2     3    1
     3     3     4   am
     4     4     5    2
     5     4     7    1
     6     7     8    1
     7     7     9    1
     8     7    10    1
     9    10    11    1
    10    11    12   ar
    11    12    13   ar
    12    13    14   ar
    13    14    17    1
    14    17    18    1
    15    17    19    1
    16    17    20    1
    17    14    15   ar
    18    15    16   ar
    19     2    21    1
    20    21    30    1
    21    30    31    1
    22    31    32   ar
    23    32    33   ar
    24    33    34   ar
    25    34    35    1
    26    34    36   ar
    27    36    37   ar
    28    21    22    1
    29    22    23   ar
    30    23    24   ar
    31    24    25   ar
    32    25    26   ar
    33    26    28    1
    34    28    29    3
    35    26    27   ar
    36    16    11   ar
    37    37    31   ar
    38    27    22   ar
    39     3     6    1
