@<TRIPOS>MOLECULE
*****
 24 28 0 0 0
SMALL
GASTEIGER

@<TRIPOS>ATOM
      1 N         138.0972  138.8849  167.3020 N.pl3   1  UNL1       -0.2536
      2 H         137.3225  138.4575  167.7339 H       1  UNL1        0.1579
      3 C         138.2970  138.7542  165.8212 C.2     1  UNL1        0.2847
      4 N         138.8976  137.5761  165.1131 N.2     1  UNL1       -0.2204
      5 C         138.9031  137.8724  163.6427 C.3     1  UNL1        0.1712
      6 C         138.3059  139.2336  163.4419 C.3     1  UNL1        0.1729
      7 C         137.6910  140.6011  163.3971 C.3     1  UNL1        0.1147
      8 N         137.5016  141.2954  162.0810 N.3     1  UNL1       -0.2697
      9 C         137.9270  140.6224  160.8098 C.3     1  UNL1        0.0723
     10 C         138.5419  139.2549  160.8547 C.3     1  UNL1        0.0209
     11 C         138.7313  138.5606  162.1708 C.3     1  UNL1        0.0429
     12 C         138.2175  139.5577  162.8278 C.3     1  UNL1        0.0209
     13 C         137.8895  140.2870  162.8038 C.3     1  UNL1        0.0723
     14 O         137.9313  139.7786  164.7883 O.2     1  UNL1       -0.4536
     15 C         143.2417  142.5962  169.9497 C.ar    1  UNL1        0.0000
     16 C         143.4839  142.3977  168.4828 C.ar    1  UNL1        0.0000
     17 C         142.5034  141.6157  167.6599 C.ar    1  UNL1        0.0001
     18 C         141.2808  141.0323  168.3039 C.ar    1  UNL1        0.0043
     19 C         140.3003  140.2503  167.4809 C.ar    1  UNL1        0.0345
     20 C         139.0776  139.6669  168.1249 C.ar    1  UNL1        0.1354
     21 N         138.8354  139.8655  169.5919 N.ar    1  UNL1       -0.2290
     22 C         139.8159  140.6474  170.4148 C.ar    1  UNL1        0.1003
     23 C         141.0385  141.2308  169.7708 C.ar    1  UNL1        0.0193
     24 C         142.0191  142.0128  170.5937 C.ar    1  UNL1        0.0015
@<TRIPOS>BOND
     1    15    16   ar
     2    16    17   ar
     3    17    18   ar
     4    18    19   ar
     5    19    20   ar
     6    20     1    1
     7     1     3    1
     8     3     4    2
     9     4     5    1
    10     6     5    1
    11     6     7    1
    12     7     8    1
    13     8     9    1
    14     9    10    1
    15    10    11    1
    16    11    12    1
    17    12    13    1
    18     6    14    1
    19    20    21   ar
    20    21    22   ar
    21    22    23   ar
    22    23    24   ar
    23    24    15   ar
    24    23    18   ar
    25    14     3    1
    26    11     6    1
    27    13     8    1
    28     1     2    1
@<TRIPOS>MOLECULE
*****
 24 28 0 0 0
SMALL
GASTEIGER

@<TRIPOS>ATOM
      1 N         143.4378  138.3602  166.3623 N.pl3   1  UNL1       -0.2536
      2 H         144.2334  137.8013  166.5171 H       1  UNL1        0.1579
      3 C         142.7930  138.3886  165.0083 C.2     1  UNL1        0.2847
      4 N         143.4795  138.6981  163.7111 N.2     1  UNL1       -0.2204
      5 C         142.4592  138.6132  162.6148 C.3     1  UNL1        0.1712
      6 C         141.1420  138.2513  163.2345 C.3     1  UNL1        0.1729
      7 C         139.8995  137.8884  163.9923 C.3     1  UNL1        0.1147
      8 N         138.6036  137.6986  163.2612 N.3     1  UNL1       -0.2697
      9 C         138.5502  137.8718  161.7722 C.3     1  UNL1        0.0723
     10 C         139.7927  138.2347  161.0144 C.3     1  UNL1        0.0209
     11 C         141.0886  138.4245  161.7455 C.3     1  UNL1        0.0429
     12 C         140.5373  138.1627  162.8933 C.3     1  UNL1        0.0209
     13 C         139.8746  137.9692  163.2975 C.3     1  UNL1        0.0723
     14 O         141.3483  138.1125  164.7138 O.2     1  UNL1       -0.4536
     15 C         140.4467  142.9325  170.5334 C.ar    1  UNL1        0.0000
     16 C         140.2926  143.3893  169.1129 C.ar    1  UNL1        0.0000
     17 C         140.8600  142.5662  167.9947 C.ar    1  UNL1        0.0001
     18 C         141.5815  141.2863  168.2968 C.ar    1  UNL1        0.0043
     19 C         142.1489  140.4632  167.1784 C.ar    1  UNL1        0.0345
     20 C         142.8704  139.1833  167.4806 C.ar    1  UNL1        0.1354
     21 N         143.0245  138.7265  168.9010 N.ar    1  UNL1       -0.2290
     22 C         142.4572  139.5496  170.0193 C.ar    1  UNL1        0.1003
     23 C         141.7357  140.8295  169.7171 C.ar    1  UNL1        0.0193
     24 C         141.1682  141.6527  170.8355 C.ar    1  UNL1        0.0015
@<TRIPOS>BOND
     1    15    16   ar
     2    16    17   ar
     3    17    18   ar
     4    18    19   ar
     5    19    20   ar
     6    20     1    1
     7     1     3    1
     8     3     4    2
     9     4     5    1
    10     6     5    1
    11     6     7    1
    12     7     8    1
    13     8     9    1
    14     9    10    1
    15    10    11    1
    16    11    12    1
    17    12    13    1
    18     6    14    1
    19    20    21   ar
    20    21    22   ar
    21    22    23   ar
    22    23    24   ar
    23    24    15   ar
    24    23    18   ar
    25    14     3    1
    26    11     6    1
    27    13     8    1
    28     1     2    1
@<TRIPOS>MOLECULE
*****
 24 28 0 0 0
SMALL
GASTEIGER

@<TRIPOS>ATOM
      1 N         143.6301  138.3636  166.7251 N.pl3   1  UNL1       -0.2536
      2 H         144.4786  137.9132  166.9406 H       1  UNL1        0.1579
      3 C         143.0288  138.2163  165.3588 C.2     1  UNL1        0.2847
      4 N         141.6809  137.6367  165.0466 N.2     1  UNL1       -0.2204
      5 C         141.4889  137.6849  163.5597 C.3     1  UNL1        0.1712
      6 C         142.7180  138.2943  162.9530 C.3     1  UNL1        0.1729
      7 C         144.0032  138.9156  162.4925 C.3     1  UNL1        0.1147
      8 N         144.2391  139.1546  161.0306 N.3     1  UNL1       -0.2697
      9 C         143.1899  138.7722  160.0292 C.3     1  UNL1        0.0723
     10 C         141.9047  138.1509  160.4897 C.3     1  UNL1        0.0209
     11 C         141.6687  137.9119  161.9516 C.3     1  UNL1        0.0429
     12 C         142.8281  138.4058  162.2708 C.3     1  UNL1        0.0209
     13 C         143.5135  138.7372  162.0252 C.3     1  UNL1        0.0723
     14 O         143.6697  138.6226  164.0650 O.2     1  UNL1       -0.4536
     15 C         140.2031  142.9858  170.4855 C.ar    1  UNL1        0.0000
     16 C         140.2334  143.4407  169.0564 C.ar    1  UNL1        0.0000
     17 C         140.9249  142.6072  168.0186 C.ar    1  UNL1        0.0001
     18 C         141.5860  141.3189  168.4097 C.ar    1  UNL1        0.0043
     19 C         142.2775  140.4854  167.3718 C.ar    1  UNL1        0.0345
     20 C         142.9386  139.1970  167.7630 C.ar    1  UNL1        0.1354
     21 N         142.9083  138.7421  169.1920 N.ar    1  UNL1       -0.2290
     22 C         142.2168  139.5756  170.2299 C.ar    1  UNL1        0.1003
     23 C         141.5557  140.8639  169.8387 C.ar    1  UNL1        0.0193
     24 C         140.8642  141.6975  170.8766 C.ar    1  UNL1        0.0015
@<TRIPOS>BOND
     1    15    16   ar
     2    16    17   ar
     3    17    18   ar
     4    18    19   ar
     5    19    20   ar
     6    20     1    1
     7     1     3    1
     8     3     4    2
     9     4     5    1
    10     6     5    1
    11     6     7    1
    12     7     8    1
    13     8     9    1
    14     9    10    1
    15    10    11    1
    16    11    12    1
    17    12    13    1
    18     6    14    1
    19    20    21   ar
    20    21    22   ar
    21    22    23   ar
    22    23    24   ar
    23    24    15   ar
    24    23    18   ar
    25    14     3    1
    26    11     6    1
    27    13     8    1
    28     1     2    1
@<TRIPOS>MOLECULE
*****
 24 28 0 0 0
SMALL
GASTEIGER

@<TRIPOS>ATOM
      1 N         138.2146  139.0640  166.7430 N.pl3   1  UNL1       -0.2536
      2 H         137.6185  138.3410  167.0450 H       1  UNL1        0.1579
      3 C         138.2053  139.4925  165.3055 C.2     1  UNL1        0.2847
      4 N         137.7062  140.8059  164.7802 N.2     1  UNL1       -0.2204
      5 C         137.8859  140.8079  163.2910 C.3     1  UNL1        0.1712
      6 C         138.4961  139.4958  162.8959 C.3     1  UNL1        0.1729
      7 C         139.1039  138.1462  162.6533 C.3     1  UNL1        0.1147
      8 N         139.4550  137.7216  161.2581 N.3     1  UNL1       -0.2697
      9 C         139.1983  138.6467  160.1056 C.3     1  UNL1        0.0723
     10 C         138.5905  139.9963  160.3483 C.3     1  UNL1        0.0209
     11 C         138.2394  140.4209  161.7434 C.3     1  UNL1        0.0429
     12 C         138.6599  139.2977  162.2449 C.3     1  UNL1        0.0209
     13 C         138.9841  138.5779  162.1154 C.3     1  UNL1        0.0723
     14 O         138.6935  138.6829  164.1410 O.2     1  UNL1       -0.4536
     15 C         143.1324  142.4326  170.1662 C.ar    1  UNL1        0.0000
     16 C         143.4623  142.4360  168.7029 C.ar    1  UNL1        0.0000
     17 C         142.5447  141.7630  167.7256 C.ar    1  UNL1        0.0001
     18 C         141.2973  141.0866  168.2116 C.ar    1  UNL1        0.0043
     19 C         140.3797  140.4135  167.2342 C.ar    1  UNL1        0.0345
     20 C         139.1322  139.7370  167.7203 C.ar    1  UNL1        0.1354
     21 N         138.8023  139.7336  169.1835 N.ar    1  UNL1       -0.2290
     22 C         139.7198  140.4067  170.1608 C.ar    1  UNL1        0.1003
     23 C         140.9673  141.0831  169.6748 C.ar    1  UNL1        0.0193
     24 C         141.8849  141.7562  170.6521 C.ar    1  UNL1        0.0015
@<TRIPOS>BOND
     1    15    16   ar
     2    16    17   ar
     3    17    18   ar
     4    18    19   ar
     5    19    20   ar
     6    20     1    1
     7     1     3    1
     8     3     4    2
     9     4     5    1
    10     6     5    1
    11     6     7    1
    12     7     8    1
    13     8     9    1
    14     9    10    1
    15    10    11    1
    16    11    12    1
    17    12    13    1
    18     6    14    1
    19    20    21   ar
    20    21    22   ar
    21    22    23   ar
    22    23    24   ar
    23    24    15   ar
    24    23    18   ar
    25    14     3    1
    26    11     6    1
    27    13     8    1
    28     1     2    1
@<TRIPOS>MOLECULE
*****
 24 28 0 0 0
SMALL
GASTEIGER

@<TRIPOS>ATOM
      1 N         143.1402  138.3397  158.3081 N.pl3   1  UNL1       -0.2536
      2 H         143.5923  139.1140  157.9015 H       1  UNL1        0.1579
      3 C         142.6688  137.2077  157.4441 C.2     1  UNL1        0.2847
      4 N         141.6566  137.3025  156.3412 N.2     1  UNL1       -0.2204
      5 C         141.4892  135.9355  155.7469 C.3     1  UNL1        0.1712
      6 C         142.3979  134.9957  156.4825 C.3     1  UNL1        0.1729
      7 C         143.3509  134.1795  157.3043 C.3     1  UNL1        0.1147
      8 N         143.5037  132.7113  157.0378 N.3     1  UNL1       -0.2697
      9 C         142.7035  132.0593  155.9494 C.3     1  UNL1        0.0723
     10 C         141.7505  132.8756  155.1275 C.3     1  UNL1        0.0209
     11 C         141.5977  134.3438  155.3941 C.3     1  UNL1        0.0429
     12 C         142.4692  134.3106  156.3581 C.3     1  UNL1        0.0209
     13 C         142.9775  133.8752  156.7964 C.3     1  UNL1        0.0723
     14 O         143.1269  135.7820  157.5314 O.2     1  UNL1       -0.4536
     15 C         140.8915  137.9291  164.7907 C.ar    1  UNL1        0.0000
     16 C         139.7306  137.7573  163.8565 C.ar    1  UNL1        0.0000
     17 C         139.9481  137.8051  162.3732 C.ar    1  UNL1        0.0001
     18 C         141.3266  138.0246  161.8240 C.ar    1  UNL1        0.0043
     19 C         141.5441  138.0724  160.3405 C.ar    1  UNL1        0.0345
     20 C         142.9226  138.2919  159.7914 C.ar    1  UNL1        0.1354
     21 N         144.0835  138.4637  160.7256 N.ar    1  UNL1       -0.2290
     22 C         143.8660  138.4160  162.2090 C.ar    1  UNL1        0.1003
     23 C         142.4875  138.1964  162.7581 C.ar    1  UNL1        0.0193
     24 C         142.2699  138.1487  164.2415 C.ar    1  UNL1        0.0015
@<TRIPOS>BOND
     1    15    16   ar
     2    16    17   ar
     3    17    18   ar
     4    18    19   ar
     5    19    20   ar
     6    20     1    1
     7     1     3    1
     8     3     4    2
     9     4     5    1
    10     6     5    1
    11     6     7    1
    12     7     8    1
    13     8     9    1
    14     9    10    1
    15    10    11    1
    16    11    12    1
    17    12    13    1
    18     6    14    1
    19    20    21   ar
    20    21    22   ar
    21    22    23   ar
    22    23    24   ar
    23    24    15   ar
    24    23    18   ar
    25    14     3    1
    26    11     6    1
    27    13     8    1
    28     1     2    1
@<TRIPOS>MOLECULE
*****
 24 28 0 0 0
SMALL
GASTEIGER

@<TRIPOS>ATOM
      1 N         138.1843  139.3118  165.7003 N.pl3   1  UNL1       -0.2536
      2 H         137.3136  139.0839  166.0992 H       1  UNL1        0.1579
      3 C         139.3738  139.5509  166.5824 C.2     1  UNL1        0.2847
      4 N         140.8123  139.4290  166.1752 N.2     1  UNL1       -0.2204
      5 C         141.6610  139.7566  167.3678 C.3     1  UNL1        0.1712
      6 C         140.7471  140.0810  168.5121 C.3     1  UNL1        0.1729
      7 C         139.7139  140.3786  169.5580 C.3     1  UNL1        0.1147
      8 N         140.1390  140.7627  170.9443 N.3     1  UNL1       -0.2697
      9 C         141.5972  140.8492  171.2847 C.3     1  UNL1        0.0723
     10 C         142.6304  140.5516  170.2388 C.3     1  UNL1        0.0209
     11 C         142.2054  140.1675  168.8525 C.3     1  UNL1        0.0429
     12 C         140.9455  140.2603  169.1590 C.3     1  UNL1        0.0209
     13 C         140.3944  140.4190  169.7168 C.3     1  UNL1        0.0723
     14 O         139.3335  139.9538  168.0267 O.2     1  UNL1       -0.4536
     15 C         138.6151  141.0814  159.0721 C.ar    1  UNL1        0.0000
     16 C         138.3592  142.3106  159.8929 C.ar    1  UNL1        0.0000
     17 C         138.2219  142.2025  161.3827 C.ar    1  UNL1        0.0001
     18 C         138.3405  140.8652  162.0517 C.ar    1  UNL1        0.0043
     19 C         138.2031  140.7572  163.5416 C.ar    1  UNL1        0.0345
     20 C         138.3217  139.4199  164.2106 C.ar    1  UNL1        0.1354
     21 N         138.5776  138.1907  163.3898 N.ar    1  UNL1       -0.2290
     22 C         138.7149  138.2988  161.9001 C.ar    1  UNL1        0.1003
     23 C         138.5963  139.6361  161.2310 C.ar    1  UNL1        0.0193
     24 C         138.7337  139.7442  159.7412 C.ar    1  UNL1        0.0015
@<TRIPOS>BOND
     1    15    16   ar
     2    16    17   ar
     3    17    18   ar
     4    18    19   ar
     5    19    20   ar
     6    20     1    1
     7     1     3    1
     8     3     4    2
     9     4     5    1
    10     6     5    1
    11     6     7    1
    12     7     8    1
    13     8     9    1
    14     9    10    1
    15    10    11    1
    16    11    12    1
    17    12    13    1
    18     6    14    1
    19    20    21   ar
    20    21    22   ar
    21    22    23   ar
    22    23    24   ar
    23    24    15   ar
    24    23    18   ar
    25    14     3    1
    26    11     6    1
    27    13     8    1
    28     1     2    1
@<TRIPOS>MOLECULE
*****
 24 28 0 0 0
SMALL
GASTEIGER

@<TRIPOS>ATOM
      1 N         143.2244  138.5148  158.7502 N.pl3   1  UNL1       -0.2536
      2 H         143.7748  139.2648  158.4281 H       1  UNL1        0.1579
      3 C         142.7008  137.4978  157.7799 C.2     1  UNL1        0.2847
      4 N         141.4309  137.6058  156.9890 N.2     1  UNL1       -0.2204
      5 C         141.3005  136.3690  156.1503 C.3     1  UNL1        0.1712
      6 C         142.4899  135.4966  156.4229 C.3     1  UNL1        0.1729
      7 C         143.7274  134.7353  156.7955 C.3     1  UNL1        0.1147
      8 N         144.0029  133.3997  156.1707 N.3     1  UNL1       -0.2697
      9 C         143.0409  132.8255  155.1733 C.3     1  UNL1        0.0723
     10 C         141.8034  133.5868  154.8008 C.3     1  UNL1        0.0209
     11 C         141.5279  134.9223  155.4256 C.3     1  UNL1        0.0429
     12 C         142.6184  134.8733  156.1314 C.3     1  UNL1        0.0209
     13 C         143.2785  134.4673  156.3300 C.3     1  UNL1        0.0723
     14 O         143.3553  136.1942  157.4300 O.2     1  UNL1       -0.4536
     15 C         142.9380  138.5157  165.6182 C.ar    1  UNL1        0.0000
     16 C         144.2271  139.1455  165.1804 C.ar    1  UNL1        0.0000
     17 C         144.5422  139.2712  163.7193 C.ar    1  UNL1        0.0001
     18 C         143.5682  138.7672  162.6959 C.ar    1  UNL1        0.0043
     19 C         143.8833  138.8930  161.2347 C.ar    1  UNL1        0.0345
     20 C         142.9093  138.3890  160.2114 C.ar    1  UNL1        0.1354
     21 N         141.6202  137.7592  160.6491 N.ar    1  UNL1       -0.2290
     22 C         141.3051  137.6335  162.1102 C.ar    1  UNL1        0.1003
     23 C         142.2791  138.1375  163.1336 C.ar    1  UNL1        0.0193
     24 C         141.9640  138.0117  164.5948 C.ar    1  UNL1        0.0015
@<TRIPOS>BOND
     1    15    16   ar
     2    16    17   ar
     3    17    18   ar
     4    18    19   ar
     5    19    20   ar
     6    20     1    1
     7     1     3    1
     8     3     4    2
     9     4     5    1
    10     6     5    1
    11     6     7    1
    12     7     8    1
    13     8     9    1
    14     9    10    1
    15    10    11    1
    16    11    12    1
    17    12    13    1
    18     6    14    1
    19    20    21   ar
    20    21    22   ar
    21    22    23   ar
    22    23    24   ar
    23    24    15   ar
    24    23    18   ar
    25    14     3    1
    26    11     6    1
    27    13     8    1
    28     1     2    1
@<TRIPOS>MOLECULE
*****
 24 28 0 0 0
SMALL
GASTEIGER

@<TRIPOS>ATOM
      1 N         138.5880  139.2946  165.1692 N.pl3   1  UNL1       -0.2536
      2 H         137.6687  138.9668  165.2982 H       1  UNL1        0.1579
      3 C         139.3679  138.8825  163.9559 C.2     1  UNL1        0.2847
      4 N         138.7896  138.4368  162.6455 N.2     1  UNL1       -0.2204
      5 C         139.9273  138.1225  161.7198 C.3     1  UNL1        0.1712
      6 C         141.2086  138.3740  162.4580 C.3     1  UNL1        0.1729
      7 C         142.4014  138.6671  163.3189 C.3     1  UNL1        0.1147
      8 N         143.7855  138.4814  162.7713 N.3     1  UNL1       -0.2697
      9 C         143.9768  138.0027  161.3627 C.3     1  UNL1        0.0723
     10 C         142.7840  137.7096  160.5018 C.3     1  UNL1        0.0209
     11 C         141.3999  137.8952  161.0494 C.3     1  UNL1        0.0429
     12 C         141.8545  138.2873  162.2024 C.3     1  UNL1        0.0209
     13 C         142.4907  138.4437  162.6616 C.3     1  UNL1        0.0723
     14 O         140.8629  138.8436  163.8400 O.2     1  UNL1       -0.4536
     15 C         141.2184  142.4887  170.6582 C.ar    1  UNL1        0.0000
     16 C         140.7444  141.1247  171.0641 C.ar    1  UNL1        0.0000
     17 C         140.1235  140.2131  170.0476 C.ar    1  UNL1        0.0001
     18 C         139.9767  140.6655  168.6250 C.ar    1  UNL1        0.0043
     19 C         139.3558  139.7538  167.6083 C.ar    1  UNL1        0.0345
     20 C         139.2089  140.2062  166.1858 C.ar    1  UNL1        0.1354
     21 N         139.6829  141.5702  165.7798 N.ar    1  UNL1       -0.2290
     22 C         140.3038  142.4818  166.7964 C.ar    1  UNL1        0.1003
     23 C         140.4506  142.0294  168.2189 C.ar    1  UNL1        0.0193
     24 C         141.0715  142.9410  169.2356 C.ar    1  UNL1        0.0015
@<TRIPOS>BOND
     1    15    16   ar
     2    16    17   ar
     3    17    18   ar
     4    18    19   ar
     5    19    20   ar
     6    20     1    1
     7     1     3    1
     8     3     4    2
     9     4     5    1
    10     6     5    1
    11     6     7    1
    12     7     8    1
    13     8     9    1
    14     9    10    1
    15    10    11    1
    16    11    12    1
    17    12    13    1
    18     6    14    1
    19    20    21   ar
    20    21    22   ar
    21    22    23   ar
    22    23    24   ar
    23    24    15   ar
    24    23    18   ar
    25    14     3    1
    26    11     6    1
    27    13     8    1
    28     1     2    1
@<TRIPOS>MOLECULE
*****
 24 28 0 0 0
SMALL
GASTEIGER

@<TRIPOS>ATOM
      1 N         137.9917  140.3316  165.1457 N.pl3   1  UNL1       -0.2536
      2 H         137.1627  140.0747  165.6104 H       1  UNL1        0.1579
      3 C         138.0789  140.2230  163.6522 C.2     1  UNL1        0.2847
      4 N         138.0990  138.9491  162.8605 N.2     1  UNL1       -0.2204
      5 C         138.1938  139.3080  161.4072 C.3     1  UNL1        0.1712
      6 C         138.2322  140.8037  161.3006 C.3     1  UNL1        0.1729
      7 C         138.2614  142.3026  161.3508 C.3     1  UNL1        0.1147
      8 N         138.3545  143.0939  160.0799 N.3     1  UNL1       -0.2697
      9 C         138.4185  142.3863  158.7589 C.3     1  UNL1        0.0723
     10 C         138.3894  140.8875  158.7087 C.3     1  UNL1        0.0209
     11 C         138.2963  140.0962  159.9796 C.3     1  UNL1        0.0429
     12 C         138.2757  141.1730  160.7076 C.3     1  UNL1        0.0209
     13 C         138.2912  141.9724  160.7343 C.3     1  UNL1        0.0723
     14 O         138.1612  141.3692  162.6882 O.2     1  UNL1       -0.4536
     15 C         143.2407  141.5167  169.4228 C.ar    1  UNL1        0.0000
     16 C         142.6097  140.2015  169.7725 C.ar    1  UNL1        0.0000
     17 C         141.4337  139.7015  168.9870 C.ar    1  UNL1        0.0001
     18 C         140.8887  140.5166  167.8519 C.ar    1  UNL1        0.0043
     19 C         139.7127  140.0165  167.0663 C.ar    1  UNL1        0.0345
     20 C         139.1677  140.8316  165.9312 C.ar    1  UNL1        0.1354
     21 N         139.7986  142.1468  165.5816 N.ar    1  UNL1       -0.2290
     22 C         140.9746  142.6468  166.3671 C.ar    1  UNL1        0.1003
     23 C         141.5196  141.8317  167.5022 C.ar    1  UNL1        0.0193
     24 C         142.6957  142.3317  168.2878 C.ar    1  UNL1        0.0015
@<TRIPOS>BOND
     1    15    16   ar
     2    16    17   ar
     3    17    18   ar
     4    18    19   ar
     5    19    20   ar
     6    20     1    1
     7     1     3    1
     8     3     4    2
     9     4     5    1
    10     6     5    1
    11     6     7    1
    12     7     8    1
    13     8     9    1
    14     9    10    1
    15    10    11    1
    16    11    12    1
    17    12    13    1
    18     6    14    1
    19    20    21   ar
    20    21    22   ar
    21    22    23   ar
    22    23    24   ar
    23    24    15   ar
    24    23    18   ar
    25    14     3    1
    26    11     6    1
    27    13     8    1
    28     1     2    1
