@<TRIPOS>MOLECULE
*****
 35 39 0 0 0
SMALL
GASTEIGER

@<TRIPOS>ATOM
      1 C         140.6476  141.2936  165.4504 C.ar    1  UNL1        0.0682
      2 C         140.9225  140.3672  166.5976 C.ar    1  UNL1        0.0241
      3 C         142.0442  140.6634  167.5486 C.ar    1  UNL1        0.1060
      4 C         142.8908  141.8858  167.3523 C.ar    1  UNL1        0.0196
      5 C         142.6160  142.8123  166.2050 C.ar    1  UNL1        0.0160
      6 C         141.4944  142.5161  165.2541 C.ar    1  UNL1        0.0523
      7 N         140.7157  138.4632  159.0613 N.ar    1  UNL1       -0.2286
      8 C         139.3601  138.8421  159.5798 C.ar    1  UNL1        0.0990
      9 C         139.5349  139.4280  160.9495 C.ar    1  UNL1        0.0338
     10 C         140.9985  139.4111  161.2775 C.ar    1  UNL1        0.0981
     11 N         141.7283  138.8149  160.1105 N.ar    1  UNL1       -0.1680
     12 C         141.1734  139.9970  162.6473 C.3     1  UNL1        0.1414
     13 N         139.8177  140.3759  163.1659 N.am    1  UNL1       -0.2661
     14 C         139.5260  140.9974  164.4994 C.2     1  UNL1        0.2508
     15 O         138.1126  141.3227  164.8823 O.2     1  UNL1       -0.2698
     16 C         138.8052  140.0242  162.1165 C.3     1  UNL1        0.1236
     17 C         144.1301  136.6092  155.6110 C.3     1  UNL1        0.0521
     18 C         142.7147  136.9147  156.0024 C.ar    1  UNL1        0.0609
     19 C         142.4228  137.5362  157.3361 C.ar    1  UNL1        0.0339
     20 C         141.0074  137.8417  157.7276 C.ar    1  UNL1        0.0855
     21 C         139.8838  137.5258  156.7855 C.ar    1  UNL1        0.0398
     22 C         140.1757  136.9043  155.4518 C.ar    1  UNL1        0.1000
     23 N         141.5911  136.5987  155.0603 N.ar    1  UNL1       -0.2480
     24 N         141.2194  143.4425  164.1068 N.pl3   1  UNL1       -0.3070
     25 C         140.0809  144.4159  164.1850 C.3     1  UNL1        0.0964
     26 C         139.8059  145.3423  163.0377 C.3     1  UNL1        0.0880
     27 C         140.6696  145.2952  161.8122 C.3     1  UNL1        0.2672
     28 F         141.2020  145.6262  160.4495 F       1  UNL1       -0.2042
     29 F         139.7159  146.3836  161.4172 F       1  UNL1       -0.2042
     30 C         141.8081  144.3218  161.7339 C.3     1  UNL1        0.0880
     31 C         142.0831  143.3954  162.8812 C.3     1  UNL1        0.0964
     32 S         142.3190  139.7369  168.6959 S.O2    1  UNL1        0.0105
     33 C         142.5938  138.8106  169.8432 C.3     1  UNL1        0.1816
     34 O         141.4841  140.6012  169.5937 O.2     1  UNL1       -0.1686
     35 O         143.1540  138.8727  167.7981 O.2     1  UNL1       -0.1686
@<TRIPOS>BOND
     1    17    18    1
     2    18    19   ar
     3    19    20   ar
     4    20     7    1
     5     7     8   ar
     6     8     9   ar
     7     9    10   ar
     8    10    11   ar
     9    10    12    1
    10    12    13    1
    11    13    14   am
    12    14    15    2
    13    14     1    1
    14     1     2   ar
    15     2     3   ar
    16     3    32    1
    17    32    33    1
    18    32    34    2
    19    32    35    2
    20     3     4   ar
    21     4     5   ar
    22     5     6   ar
    23     6    24    1
    24    24    25    1
    25    25    26    1
    26    26    27    1
    27    27    28    1
    28    27    29    1
    29    27    30    1
    30    30    31    1
    31    13    16    1
    32    20    21   ar
    33    21    22   ar
    34    22    23   ar
    35    23    18   ar
    36    11     7   ar
    37     6     1   ar
    38    31    24    1
    39    16     9    1
@<TRIPOS>MOLECULE
*****
 35 39 0 0 0
SMALL
GASTEIGER

@<TRIPOS>ATOM
      1 C         140.6214  141.1846  165.5617 C.ar    1  UNL1        0.0682
      2 C         140.9282  140.2307  166.6779 C.ar    1  UNL1        0.0241
      3 C         142.0510  140.5246  167.6283 C.ar    1  UNL1        0.1060
      4 C         142.8668  141.7723  167.4625 C.ar    1  UNL1        0.0196
      5 C         142.5600  142.7262  166.3462 C.ar    1  UNL1        0.0160
      6 C         141.4374  142.4323  165.3959 C.ar    1  UNL1        0.0523
      7 N         140.6900  138.4440  159.1335 N.ar    1  UNL1       -0.2286
      8 C         139.3330  138.8025  159.6628 C.ar    1  UNL1        0.0990
      9 C         139.5079  139.3709  161.0398 C.ar    1  UNL1        0.0338
     10 C         140.9730  139.3638  161.3616 C.ar    1  UNL1        0.0981
     11 N         141.7035  138.7910  160.1834 N.ar    1  UNL1       -0.1680
     12 C         141.1479  139.9323  162.7387 C.3     1  UNL1        0.1414
     13 N         139.7909  140.2907  163.2680 N.am    1  UNL1       -0.2661
     14 C         139.4987  140.8907  164.6113 C.2     1  UNL1        0.2508
     15 O         138.0839  141.1969  165.0044 O.2     1  UNL1       -0.2698
     16 C         138.7773  139.9438  162.2180 C.3     1  UNL1        0.1236
     17 C         144.0982  136.5778  155.6837 C.3     1  UNL1        0.0521
     18 C         142.6863  136.9109  156.0652 C.ar    1  UNL1        0.0609
     19 C         142.3940  137.5109  157.4086 C.ar    1  UNL1        0.0339
     20 C         140.9821  137.8440  157.7902 C.ar    1  UNL1        0.0855
     21 C         139.8624  137.5771  156.8284 C.ar    1  UNL1        0.0398
     22 C         140.1547  136.9770  155.4850 C.ar    1  UNL1        0.1000
     23 N         141.5666  136.6439  155.1034 N.ar    1  UNL1       -0.2480
     24 N         141.1306  143.3862  164.2796 N.pl3   1  UNL1       -0.3070
     25 C         141.9952  143.4096  163.0541 C.3     1  UNL1        0.0964
     26 C         141.6884  144.3635  161.9379 C.3     1  UNL1        0.0880
     27 C         140.5169  145.2940  162.0472 C.3     1  UNL1        0.2672
     28 F         139.5263  146.3613  161.6874 F       1  UNL1       -0.2042
     29 F         141.0375  145.6881  160.6967 F       1  UNL1       -0.2042
     30 C         139.6523  145.2706  163.2726 C.3     1  UNL1        0.0880
     31 C         139.9591  144.3167  164.3889 C.3     1  UNL1        0.0964
     32 S         142.3577  139.5706  168.7445 S.O2    1  UNL1        0.0105
     33 C         142.6645  138.6166  169.8606 C.3     1  UNL1        0.1816
     34 O         143.2284  138.7706  167.8214 O.2     1  UNL1       -0.1686
     35 O         141.4870  140.3706  169.6676 O.2     1  UNL1       -0.1686
@<TRIPOS>BOND
     1    17    18    1
     2    18    19   ar
     3    19    20   ar
     4    20     7    1
     5     7     8   ar
     6     8     9   ar
     7     9    10   ar
     8    10    11   ar
     9    10    12    1
    10    12    13    1
    11    13    14   am
    12    14    15    2
    13    14     1    1
    14     1     2   ar
    15     2     3   ar
    16     3    32    1
    17    32    33    1
    18    32    34    2
    19    32    35    2
    20     3     4   ar
    21     4     5   ar
    22     5     6   ar
    23     6    24    1
    24    24    25    1
    25    25    26    1
    26    26    27    1
    27    27    28    1
    28    27    29    1
    29    27    30    1
    30    30    31    1
    31    13    16    1
    32    20    21   ar
    33    21    22   ar
    34    22    23   ar
    35    23    18   ar
    36    11     7   ar
    37     6     1   ar
    38    31    24    1
    39    16     9    1
@<TRIPOS>MOLECULE
*****
 35 39 0 0 0
SMALL
GASTEIGER

@<TRIPOS>ATOM
      1 C         142.0976  141.0990  166.4597 C.ar    1  UNL1        0.0682
      2 C         142.7872  141.8366  167.5689 C.ar    1  UNL1        0.0241
      3 C         142.0352  142.1843  168.8194 C.ar    1  UNL1        0.1060
      4 C         140.5938  141.7944  168.9607 C.ar    1  UNL1        0.0196
      5 C         139.9041  141.0567  167.8515 C.ar    1  UNL1        0.0160
      6 C         140.6561  140.7091  166.6010 C.ar    1  UNL1        0.0523
      7 N         141.7514  143.8128  160.0291 N.ar    1  UNL1       -0.2286
      8 C         142.7380  142.6960  160.2010 C.ar    1  UNL1        0.0990
      9 C         142.6777  142.2400  161.6287 C.ar    1  UNL1        0.0338
     10 C         141.6539  143.0749  162.3392 C.ar    1  UNL1        0.0981
     11 N         141.0814  144.0470  161.3506 N.ar    1  UNL1       -0.1680
     12 C         141.5936  142.6189  163.7670 C.3     1  UNL1        0.1414
     13 N         142.5803  141.5021  163.9389 N.am    1  UNL1       -0.2661
     14 C         142.8496  140.7514  165.2092 C.2     1  UNL1        0.2508
     15 O         143.8709  139.6529  165.2291 O.2     1  UNL1       -0.2698
     16 C         143.2502  141.2680  162.6174 C.3     1  UNL1        0.1236
     17 C         142.8905  144.7970  155.0558 C.3     1  UNL1        0.0521
     18 C         142.0516  145.0557  156.2721 C.ar    1  UNL1        0.0609
     19 C         142.3209  144.3049  157.5425 C.ar    1  UNL1        0.0339
     20 C         141.4820  144.5636  158.7588 C.ar    1  UNL1        0.0855
     21 C         140.3738  145.5730  158.7047 C.ar    1  UNL1        0.0398
     22 C         140.1046  146.3238  157.4343 C.ar    1  UNL1        0.1000
     23 N         140.9434  146.0651  156.2180 N.ar    1  UNL1       -0.2480
     24 N         139.9665  139.9715  165.4918 N.pl3   1  UNL1       -0.3070
     25 C         138.9449  140.6726  164.6463 C.3     1  UNL1        0.0964
     26 C         138.2553  139.9350  163.5371 C.3     1  UNL1        0.0880
     27 C         138.5873  138.4962  163.2733 C.3     1  UNL1        0.2672
     28 F         138.5614  137.1370  162.6394 F       1  UNL1       -0.2042
     29 F         137.5568  138.7253  162.2077 F       1  UNL1       -0.2042
     30 C         139.6089  137.7950  164.1186 C.3     1  UNL1        0.0880
     31 C         140.2985  138.5326  165.2279 C.3     1  UNL1        0.0964
     32 S         142.7249  142.9219  169.9286 S.O2    1  UNL1        0.0105
     33 C         143.4145  143.6596  171.0378 C.3     1  UNL1        0.1816
     34 O         141.3967  143.2069  170.5649 O.2     1  UNL1       -0.1686
     35 O         144.0531  142.6370  169.2924 O.2     1  UNL1       -0.1686
@<TRIPOS>BOND
     1    17    18    1
     2    18    19   ar
     3    19    20   ar
     4    20     7    1
     5     7     8   ar
     6     8     9   ar
     7     9    10   ar
     8    10    11   ar
     9    10    12    1
    10    12    13    1
    11    13    14   am
    12    14    15    2
    13    14     1    1
    14     1     2   ar
    15     2     3   ar
    16     3    32    1
    17    32    33    1
    18    32    34    2
    19    32    35    2
    20     3     4   ar
    21     4     5   ar
    22     5     6   ar
    23     6    24    1
    24    24    25    1
    25    25    26    1
    26    26    27    1
    27    27    28    1
    28    27    29    1
    29    27    30    1
    30    30    31    1
    31    13    16    1
    32    20    21   ar
    33    21    22   ar
    34    22    23   ar
    35    23    18   ar
    36    11     7   ar
    37     6     1   ar
    38    31    24    1
    39    16     9    1
@<TRIPOS>MOLECULE
*****
 35 39 0 0 0
SMALL
GASTEIGER

@<TRIPOS>ATOM
      1 C         142.5137  141.4251  165.5163 C.ar    1  UNL1        0.0682
      2 C         142.8595  140.5276  166.6674 C.ar    1  UNL1        0.0241
      3 C         141.9407  140.4361  167.8495 C.ar    1  UNL1        0.1060
      4 C         140.6761  141.2420  167.8807 C.ar    1  UNL1        0.0196
      5 C         140.3301  142.1396  166.7296 C.ar    1  UNL1        0.0160
      6 C         141.2490  142.2311  165.5475 C.ar    1  UNL1        0.0523
      7 N         142.0964  138.5036  159.1817 N.ar    1  UNL1       -0.2286
      8 C         143.3004  139.3685  159.4104 C.ar    1  UNL1        0.0990
      9 C         143.2257  139.9068  160.8085 C.ar    1  UNL1        0.0338
     10 C         141.9755  139.3745  161.4439 C.ar    1  UNL1        0.0981
     11 N         141.2776  138.5073  160.4385 N.ar    1  UNL1       -0.1680
     12 C         141.9008  139.9127  162.8420 C.3     1  UNL1        0.1414
     13 N         143.1049  140.7777  163.0707 N.am    1  UNL1       -0.2661
     14 C         143.4325  141.5166  164.3342 C.2     1  UNL1        0.2508
     15 O         144.6790  142.3470  164.4158 O.2     1  UNL1       -0.2698
     16 C         143.9237  140.7740  161.8139 C.3     1  UNL1        0.1236
     17 C         143.5314  135.3390  155.3183 C.3     1  UNL1        0.0521
     18 C         142.4862  136.1824  155.9864 C.ar    1  UNL1        0.0609
     19 C         142.8138  136.9213  157.2500 C.ar    1  UNL1        0.0339
     20 C         141.7687  137.7647  157.9182 C.ar    1  UNL1        0.0855
     21 C         140.3960  137.8692  157.3227 C.ar    1  UNL1        0.0398
     22 C         140.0684  137.1302  156.0591 C.ar    1  UNL1        0.1000
     23 N         141.1135  136.2869  155.3909 N.ar    1  UNL1       -0.2480
     24 N         140.9031  143.1286  164.3965 N.pl3   1  UNL1       -0.3070
     25 C         141.6205  144.4342  164.2216 C.3     1  UNL1        0.0964
     26 C         141.2747  145.3318  163.0706 C.3     1  UNL1        0.0880
     27 C         140.2114  144.9236  162.0945 C.3     1  UNL1        0.2672
     28 F         139.2856  144.9752  160.9154 F       1  UNL1       -0.2042
     29 F         140.6073  146.2472  161.5101 F       1  UNL1       -0.2042
     30 C         139.4940  143.6180  162.2692 C.3     1  UNL1        0.0880
     31 C         139.8398  142.7204  163.4203 C.3     1  UNL1        0.0964
     32 S         142.2866  139.5385  169.0005 S.O2    1  UNL1        0.0105
     33 C         142.6327  138.6409  170.1514 C.3     1  UNL1        0.1816
     34 O         143.1982  138.7476  168.1096 O.2     1  UNL1       -0.1686
     35 O         141.3752  140.3294  169.8914 O.2     1  UNL1       -0.1686
@<TRIPOS>BOND
     1    17    18    1
     2    18    19   ar
     3    19    20   ar
     4    20     7    1
     5     7     8   ar
     6     8     9   ar
     7     9    10   ar
     8    10    11   ar
     9    10    12    1
    10    12    13    1
    11    13    14   am
    12    14    15    2
    13    14     1    1
    14     1     2   ar
    15     2     3   ar
    16     3    32    1
    17    32    33    1
    18    32    34    2
    19    32    35    2
    20     3     4   ar
    21     4     5   ar
    22     5     6   ar
    23     6    24    1
    24    24    25    1
    25    25    26    1
    26    26    27    1
    27    27    28    1
    28    27    29    1
    29    27    30    1
    30    30    31    1
    31    13    16    1
    32    20    21   ar
    33    21    22   ar
    34    22    23   ar
    35    23    18   ar
    36    11     7   ar
    37     6     1   ar
    38    31    24    1
    39    16     9    1
@<TRIPOS>MOLECULE
*****
 35 39 0 0 0
SMALL
GASTEIGER

@<TRIPOS>ATOM
      1 C         141.3056  139.3540  158.0900 C.ar    1  UNL1        0.0682
      2 C         141.7303  138.0093  157.5785 C.ar    1  UNL1        0.0241
      3 C         142.9225  137.8926  156.6756 C.ar    1  UNL1        0.1060
      4 C         143.6900  139.1204  156.2843 C.ar    1  UNL1        0.0196
      5 C         143.2654  140.4651  156.7958 C.ar    1  UNL1        0.0160
      6 C         142.0732  140.5819  157.6986 C.ar    1  UNL1        0.0523
      7 N         140.8775  139.6632  165.0583 N.ar    1  UNL1       -0.2286
      8 C         139.5661  139.7224  164.3325 C.ar    1  UNL1        0.0990
      9 C         139.8467  139.6443  162.8611 C.ar    1  UNL1        0.0338
     10 C         141.3316  139.5368  162.6774 C.ar    1  UNL1        0.0981
     11 N         141.9686  139.5485  164.0354 N.ar    1  UNL1       -0.1680
     12 C         141.6122  139.4587  161.2060 C.3     1  UNL1        0.1414
     13 N         140.3008  139.5179  160.4802 N.am    1  UNL1       -0.2661
     14 C         140.1134  139.4707  158.9928 C.2     1  UNL1        0.2508
     15 O         138.7338  139.5402  158.4080 O.2     1  UNL1       -0.2698
     16 C         139.2097  139.6326  161.5031 C.3     1  UNL1        0.1236
     17 C         138.9237  140.3802  169.8194 C.3     1  UNL1        0.0521
     18 C         140.0880  140.0689  168.9264 C.ar    1  UNL1        0.0609
     19 C         139.9007  140.0217  167.4389 C.ar    1  UNL1        0.0339
     20 C         141.0649  139.7104  166.5458 C.ar    1  UNL1        0.0855
     21 C         142.4165  139.4463  167.1402 C.ar    1  UNL1        0.0398
     22 C         142.6038  139.4936  168.6277 C.ar    1  UNL1        0.1000
     23 N         141.4396  139.8048  169.5208 N.ar    1  UNL1       -0.2480
     24 N         141.6486  141.9265  158.2101 N.pl3   1  UNL1       -0.3070
     25 C         142.3178  142.5157  159.4163 C.3     1  UNL1        0.0964
     26 C         141.8932  143.8603  159.9278 C.3     1  UNL1        0.0880
     27 C         140.7993  144.6158  159.2330 C.3     1  UNL1        0.2672
     28 F         139.8197  145.7076  158.9194 F       1  UNL1       -0.2042
     29 F         141.1283  145.5841  160.3303 F       1  UNL1       -0.2042
     30 C         140.1300  144.0267  158.0268 C.3     1  UNL1        0.0880
     31 C         140.5546  142.6820  157.5153 C.3     1  UNL1        0.0964
     32 S         143.3470  136.5479  156.1642 S.O2    1  UNL1        0.0105
     33 C         143.7715  135.2031  155.6528 C.3     1  UNL1        0.1816
     34 O         142.0203  135.9757  156.5675 O.2     1  UNL1       -0.1686
     35 O         144.6737  137.1199  155.7609 O.2     1  UNL1       -0.1686
@<TRIPOS>BOND
     1    17    18    1
     2    18    19   ar
     3    19    20   ar
     4    20     7    1
     5     7     8   ar
     6     8     9   ar
     7     9    10   ar
     8    10    11   ar
     9    10    12    1
    10    12    13    1
    11    13    14   am
    12    14    15    2
    13    14     1    1
    14     1     2   ar
    15     2     3   ar
    16     3    32    1
    17    32    33    1
    18    32    34    2
    19    32    35    2
    20     3     4   ar
    21     4     5   ar
    22     5     6   ar
    23     6    24    1
    24    24    25    1
    25    25    26    1
    26    26    27    1
    27    27    28    1
    28    27    29    1
    29    27    30    1
    30    30    31    1
    31    13    16    1
    32    20    21   ar
    33    21    22   ar
    34    22    23   ar
    35    23    18   ar
    36    11     7   ar
    37     6     1   ar
    38    31    24    1
    39    16     9    1
@<TRIPOS>MOLECULE
*****
 35 39 0 0 0
SMALL
GASTEIGER

@<TRIPOS>ATOM
      1 C         142.2986  137.8000  157.6755 C.ar    1  UNL1        0.0682
      2 C         142.9787  136.4799  157.4639 C.ar    1  UNL1        0.0241
      3 C         142.4460  135.5165  156.4448 C.ar    1  UNL1        0.1060
      4 C         141.2334  135.8734  155.6374 C.ar    1  UNL1        0.0196
      5 C         140.5533  137.1935  155.8489 C.ar    1  UNL1        0.0160
      6 C         141.0859  138.1568  156.8679 C.ar    1  UNL1        0.0523
      7 N         140.2710  139.0740  164.2407 N.ar    1  UNL1       -0.2286
      8 C         141.4309  139.8935  163.7579 C.ar    1  UNL1        0.0990
      9 C         141.7259  139.4909  162.3434 C.ar    1  UNL1        0.0338
     10 C         140.7484  138.4226  161.9520 C.ar    1  UNL1        0.0981
     11 N         139.8492  138.1649  163.1246 N.ar    1  UNL1       -0.1680
     12 C         141.0434  138.0200  160.5374 C.3     1  UNL1        0.1414
     13 N         142.2034  138.8395  160.0546 N.am    1  UNL1       -0.2661
     14 C         142.8312  138.7632  158.6945 C.2     1  UNL1        0.2508
     15 O         143.9918  139.6503  158.3533 O.2     1  UNL1       -0.2698
     16 C         142.6251  139.7485  161.1707 C.3     1  UNL1        0.1236
     17 C         140.4580  140.5999  169.2042 C.3     1  UNL1        0.0521
     18 C         139.7367  139.9132  168.0827 C.ar    1  UNL1        0.0609
     19 C         140.3645  139.8369  166.7225 C.ar    1  UNL1        0.0339
     20 C         139.6431  139.1502  165.6008 C.ar    1  UNL1        0.0855
     21 C         138.2939  138.5397  165.8393 C.ar    1  UNL1        0.0398
     22 C         137.6661  138.6159  167.1995 C.ar    1  UNL1        0.1000
     23 N         138.3875  139.3026  168.3212 N.ar    1  UNL1       -0.2480
     24 N         140.4058  139.4769  157.0794 N.pl3   1  UNL1       -0.3070
     25 C         139.1990  139.5654  157.9658 C.3     1  UNL1        0.0964
     26 C         138.5189  140.8855  158.1773 C.3     1  UNL1        0.0880
     27 C         139.0457  142.1172  157.5025 C.3     1  UNL1        0.2672
     28 F         139.1681  143.5528  157.0852 F       1  UNL1       -0.2042
     29 F         137.8813  142.7042  158.2439 F       1  UNL1       -0.2042
     30 C         140.2525  142.0289  156.6161 C.3     1  UNL1        0.0880
     31 C         140.9327  140.7087  156.4045 C.3     1  UNL1        0.0964
     32 S         143.1262  134.1964  156.2334 S.O2    1  UNL1        0.0105
     33 C         143.8063  132.8763  156.0219 C.3     1  UNL1        0.1816
     34 O         142.6409  134.1738  154.8142 O.2     1  UNL1       -0.1686
     35 O         143.6115  134.2190  157.6526 O.2     1  UNL1       -0.1686
@<TRIPOS>BOND
     1    17    18    1
     2    18    19   ar
     3    19    20   ar
     4    20     7    1
     5     7     8   ar
     6     8     9   ar
     7     9    10   ar
     8    10    11   ar
     9    10    12    1
    10    12    13    1
    11    13    14   am
    12    14    15    2
    13    14     1    1
    14     1     2   ar
    15     2     3   ar
    16     3    32    1
    17    32    33    1
    18    32    34    2
    19    32    35    2
    20     3     4   ar
    21     4     5   ar
    22     5     6   ar
    23     6    24    1
    24    24    25    1
    25    25    26    1
    26    26    27    1
    27    27    28    1
    28    27    29    1
    29    27    30    1
    30    30    31    1
    31    13    16    1
    32    20    21   ar
    33    21    22   ar
    34    22    23   ar
    35    23    18   ar
    36    11     7   ar
    37     6     1   ar
    38    31    24    1
    39    16     9    1
@<TRIPOS>MOLECULE
*****
 35 39 0 0 0
SMALL
GASTEIGER

@<TRIPOS>ATOM
      1 C         140.3504  140.4869  166.1170 C.ar    1  UNL1        0.0682
      2 C         140.9294  139.5713  167.1545 C.ar    1  UNL1        0.0241
      3 C         141.6924  140.1393  168.3144 C.ar    1  UNL1        0.1060
      4 C         141.8765  141.6228  168.4368 C.ar    1  UNL1        0.0196
      5 C         141.2976  142.5386  167.3993 C.ar    1  UNL1        0.0160
      6 C         140.5346  141.9706  166.2394 C.ar    1  UNL1        0.0523
      7 N         142.3286  139.2382  159.5319 N.ar    1  UNL1       -0.2286
      8 C         140.9067  138.8837  159.8519 C.ar    1  UNL1        0.0990
      9 C         140.6596  139.2154  161.2938 C.ar    1  UNL1        0.0338
     10 C         141.9288  139.7748  161.8649 C.ar    1  UNL1        0.0981
     11 N         142.9603  139.7890  160.7760 N.ar    1  UNL1       -0.1680
     12 C         141.6817  140.1065  163.3067 C.3     1  UNL1        0.1414
     13 N         140.2597  139.7520  163.6268 N.am    1  UNL1       -0.2661
     14 C         139.5874  139.9190  164.9572 C.2     1  UNL1        0.2508
     15 O         138.1521  139.5179  165.1280 O.2     1  UNL1       -0.2698
     16 C         139.6280  139.2013  162.3827 C.3     1  UNL1        0.1236
     17 C         145.3900  141.1051  155.7713 C.3     1  UNL1        0.0521
     18 C         144.5316  140.0047  156.3211 C.ar    1  UNL1        0.0609
     19 C         143.8593  140.1716  157.6516 C.ar    1  UNL1        0.0339
     20 C         143.0009  139.0713  158.2014 C.ar    1  UNL1        0.0855
     21 C         142.8148  137.8040  157.4208 C.ar    1  UNL1        0.0398
     22 C         143.4871  137.6371  156.0903 C.ar    1  UNL1        0.1000
     23 N         144.3455  138.7375  155.5405 N.ar    1  UNL1       -0.2480
     24 N         139.9556  142.8862  165.2019 N.pl3   1  UNL1       -0.3070
     25 C         138.4688  142.9716  165.0226 C.3     1  UNL1        0.0964
     26 C         137.8899  143.8873  163.9851 C.3     1  UNL1        0.0880
     27 C         138.7978  144.7175  163.1270 C.3     1  UNL1        0.2672
     28 F         139.2429  145.6954  162.0803 F       1  UNL1       -0.2042
     29 F         137.4656  145.1425  162.5841 F       1  UNL1       -0.2042
     30 C         140.2845  144.6323  163.3062 C.3     1  UNL1        0.0880
     31 C         140.8636  143.7166  164.3438 C.3     1  UNL1        0.0964
     32 S         142.2713  139.2235  169.3519 S.O2    1  UNL1        0.0105
     33 C         142.8501  138.3078  170.3894 C.3     1  UNL1        0.1816
     34 O         141.2824  139.7365  170.3564 O.2     1  UNL1       -0.1686
     35 O         143.2602  138.7105  168.3474 O.2     1  UNL1       -0.1686
@<TRIPOS>BOND
     1    17    18    1
     2    18    19   ar
     3    19    20   ar
     4    20     7    1
     5     7     8   ar
     6     8     9   ar
     7     9    10   ar
     8    10    11   ar
     9    10    12    1
    10    12    13    1
    11    13    14   am
    12    14    15    2
    13    14     1    1
    14     1     2   ar
    15     2     3   ar
    16     3    32    1
    17    32    33    1
    18    32    34    2
    19    32    35    2
    20     3     4   ar
    21     4     5   ar
    22     5     6   ar
    23     6    24    1
    24    24    25    1
    25    25    26    1
    26    26    27    1
    27    27    28    1
    28    27    29    1
    29    27    30    1
    30    30    31    1
    31    13    16    1
    32    20    21   ar
    33    21    22   ar
    34    22    23   ar
    35    23    18   ar
    36    11     7   ar
    37     6     1   ar
    38    31    24    1
    39    16     9    1
@<TRIPOS>MOLECULE
*****
 35 39 0 0 0
SMALL
GASTEIGER

@<TRIPOS>ATOM
      1 C         142.7304  141.0232  159.3941 C.ar    1  UNL1        0.0682
      2 C         143.2616  139.8638  158.6043 C.ar    1  UNL1        0.0241
      3 C         142.4544  139.2916  157.4768 C.ar    1  UNL1        0.1060
      4 C         141.1162  139.8788  157.1390 C.ar    1  UNL1        0.0196
      5 C         140.5849  141.0383  157.9287 C.ar    1  UNL1        0.0160
      6 C         141.3920  141.6104  159.0562 C.ar    1  UNL1        0.0523
      7 N         142.0070  140.3594  166.3130 N.ar    1  UNL1       -0.2286
      8 C         143.1569  141.2136  165.8681 C.ar    1  UNL1        0.0990
      9 C         143.1589  141.2436  164.3684 C.ar    1  UNL1        0.0338
     10 C         142.0102  140.4080  163.8865 C.ar    1  UNL1        0.0981
     11 N         141.2982  139.8615  165.0884 N.ar    1  UNL1       -0.1680
     12 C         142.0122  140.4380  162.3868 C.3     1  UNL1        0.1414
     13 N         143.1622  141.2922  161.9418 N.am    1  UNL1       -0.2661
     14 C         143.5375  141.5953  160.5216 C.2     1  UNL1        0.2508
     15 O         144.7200  142.4705  160.2287 O.2     1  UNL1       -0.2698
     16 C         143.8708  141.7900  163.1665 C.3     1  UNL1        0.1236
     17 C         138.4883  140.3637  170.1365 C.3     1  UNL1        0.0521
     18 C         139.8722  140.0585  169.6451 C.ar    1  UNL1        0.0609
     19 C         140.2477  140.3615  168.2248 C.ar    1  UNL1        0.0339
     20 C         141.6316  140.0563  167.7333 C.ar    1  UNL1        0.0855
     21 C         142.6402  139.4480  168.6622 C.ar    1  UNL1        0.0398
     22 C         142.2647  139.1449  170.0825 C.ar    1  UNL1        0.1000
     23 N         140.8808  139.4501  170.5739 N.ar    1  UNL1       -0.2480
     24 N         140.8608  142.7697  159.8460 N.pl3   1  UNL1       -0.3070
     25 C         141.3873  144.1518  159.5956 C.3     1  UNL1        0.0964
     26 C         140.8561  145.3112  160.3854 C.3     1  UNL1        0.0880
     27 C         139.7984  145.0884  161.4254 C.3     1  UNL1        0.2672
     28 F         138.8036  145.3810  162.5093 F       1  UNL1       -0.2042
     29 F         139.9794  146.5721  161.5516 F       1  UNL1       -0.2042
     30 C         139.2719  143.7064  161.6758 C.3     1  UNL1        0.0880
     31 C         139.8031  142.5470  160.8861 C.3     1  UNL1        0.0964
     32 S         142.9857  138.1323  156.6871 S.O2    1  UNL1        0.0105
     33 C         143.5172  136.9730  155.8974 C.3     1  UNL1        0.1816
     34 O         144.1638  138.9596  156.2653 O.2     1  UNL1       -0.1686
     35 O         141.8077  137.3050  157.1088 O.2     1  UNL1       -0.1686
@<TRIPOS>BOND
     1    17    18    1
     2    18    19   ar
     3    19    20   ar
     4    20     7    1
     5     7     8   ar
     6     8     9   ar
     7     9    10   ar
     8    10    11   ar
     9    10    12    1
    10    12    13    1
    11    13    14   am
    12    14    15    2
    13    14     1    1
    14     1     2   ar
    15     2     3   ar
    16     3    32    1
    17    32    33    1
    18    32    34    2
    19    32    35    2
    20     3     4   ar
    21     4     5   ar
    22     5     6   ar
    23     6    24    1
    24    24    25    1
    25    25    26    1
    26    26    27    1
    27    27    28    1
    28    27    29    1
    29    27    30    1
    30    30    31    1
    31    13    16    1
    32    20    21   ar
    33    21    22   ar
    34    22    23   ar
    35    23    18   ar
    36    11     7   ar
    37     6     1   ar
    38    31    24    1
    39    16     9    1
@<TRIPOS>MOLECULE
*****
 35 39 0 0 0
SMALL
GASTEIGER

@<TRIPOS>ATOM
      1 C         143.0249  141.5660  164.9833 C.ar    1  UNL1        0.0682
      2 C         142.9502  142.3174  166.2794 C.ar    1  UNL1        0.0241
      3 C         142.2107  141.7303  167.4451 C.ar    1  UNL1        0.1060
      4 C         141.5461  140.3920  167.3147 C.ar    1  UNL1        0.0196
      5 C         141.6208  139.6406  166.0186 C.ar    1  UNL1        0.0160
      6 C         142.3603  140.2276  164.8530 C.ar    1  UNL1        0.0523
      7 N         140.6778  144.1458  158.9276 N.ar    1  UNL1       -0.2286
      8 C         142.1671  144.1787  159.1038 C.ar    1  UNL1        0.0990
      9 C         142.4880  143.5916  160.4463 C.ar    1  UNL1        0.0338
     10 C         141.1972  143.1959  161.0998 C.ar    1  UNL1        0.0981
     11 N         140.0784  143.5385  160.1612 N.ar    1  UNL1       -0.1680
     12 C         141.5181  142.6089  162.4423 C.3     1  UNL1        0.1414
     13 N         143.0075  142.6417  162.6186 N.am    1  UNL1       -0.2661
     14 C         143.7644  142.1530  163.8177 C.2     1  UNL1        0.2508
     15 O         145.2608  142.2513  163.8514 O.2     1  UNL1       -0.2698
     16 C         143.6068  143.2491  161.3849 C.3     1  UNL1        0.1236
     17 C         139.2069  148.0362  155.8130 C.3     1  UNL1        0.0521
     18 C         139.1854  146.5798  156.1710 C.ar    1  UNL1        0.0609
     19 C         139.9423  146.0910  157.3703 C.ar    1  UNL1        0.0339
     20 C         139.9209  144.6345  157.7284 C.ar    1  UNL1        0.0855
     21 C         139.1424  143.6668  156.8873 C.ar    1  UNL1        0.0398
     22 C         138.3855  144.1556  155.6880 C.ar    1  UNL1        0.1000
     23 N         138.4069  145.6120  155.3299 N.ar    1  UNL1       -0.2480
     24 N         142.4350  139.4762  163.5569 N.pl3   1  UNL1       -0.3070
     25 C         143.7258  138.8416  163.1312 C.3     1  UNL1        0.0964
     26 C         143.8006  138.0903  161.8351 C.3     1  UNL1        0.0880
     27 C         142.5846  137.9735  160.9647 C.3     1  UNL1        0.2672
     28 F         141.7116  137.5900  159.8068 F       1  UNL1       -0.2042
     29 F         143.5722  137.2057  160.1369 F       1  UNL1       -0.2042
     30 C         141.2938  138.6080  161.3902 C.3     1  UNL1        0.0880
     31 C         141.2190  139.3594  162.6864 C.3     1  UNL1        0.0964
     32 S         142.1360  142.4818  168.7412 S.O2    1  UNL1        0.0105
     33 C         142.0612  143.2333  170.0372 C.3     1  UNL1        0.1816
     34 O         140.6451  142.3166  168.7509 O.2     1  UNL1       -0.1686
     35 O         143.6268  142.6470  168.7315 O.2     1  UNL1       -0.1686
@<TRIPOS>BOND
     1    17    18    1
     2    18    19   ar
     3    19    20   ar
     4    20     7    1
     5     7     8   ar
     6     8     9   ar
     7     9    10   ar
     8    10    11   ar
     9    10    12    1
    10    12    13    1
    11    13    14   am
    12    14    15    2
    13    14     1    1
    14     1     2   ar
    15     2     3   ar
    16     3    32    1
    17    32    33    1
    18    32    34    2
    19    32    35    2
    20     3     4   ar
    21     4     5   ar
    22     5     6   ar
    23     6    24    1
    24    24    25    1
    25    25    26    1
    26    26    27    1
    27    27    28    1
    28    27    29    1
    29    27    30    1
    30    30    31    1
    31    13    16    1
    32    20    21   ar
    33    21    22   ar
    34    22    23   ar
    35    23    18   ar
    36    11     7   ar
    37     6     1   ar
    38    31    24    1
    39    16     9    1
