@<TRIPOS>MOLECULE
*****
 44 49 0 0 0
SMALL
GASTEIGER

@<TRIPOS>ATOM
      1 C         140.9957  141.7698  169.4291 C.ar    1  UNL1        0.0769
      2 C         142.0633  141.7487  168.3758 C.ar    1  UNL1        0.0065
      3 C         141.9016  140.8835  167.1612 C.ar    1  UNL1        0.0016
      4 C         140.6722  140.0395  166.9999 C.ar    1  UNL1        0.0191
      5 C         139.6045  140.0606  168.0532 C.ar    1  UNL1        0.0509
      6 C         139.7662  140.9258  169.2678 C.ar    1  UNL1        0.0211
      7 N         138.5106  139.1286  167.6232 N.am    1  UNL1       -0.2803
      8 C         138.9022  138.5315  166.3041 C.2     1  UNL1        0.2507
      9 O         138.0990  137.5447  165.5097 O.2     1  UNL1       -0.2698
     10 C         140.2382  139.0945  165.9189 C.2     1  UNL1        0.0682
     11 C         141.0054  138.7695  164.6716 C.2     1  UNL1        0.0527
     12 H         137.6812  138.9417  168.1196 H       1  UNL1        0.1552
     13 C         142.3363  139.4140  164.4203 C.ar    1  UNL1        0.0136
     14 C         143.5934  138.7508  164.8997 C.ar    1  UNL1        0.0012
     15 C         144.9244  139.3955  164.6484 C.ar    1  UNL1        0.0000
     16 C         144.9982  140.7034  163.9177 C.ar    1  UNL1        0.0000
     17 C         143.7411  141.3666  163.4383 C.ar    1  UNL1        0.0000
     18 C         142.4102  140.7220  163.6896 C.ar    1  UNL1        0.0012
     19 C         141.1574  142.6350  170.6438 C.2     1  UNL1        0.3414
     20 O         140.3748  142.3352  171.8878 O.2     1  UNL1       -0.2449
     21 C         143.5147  143.6323  171.0895 C.3     1  UNL1        0.2560
     22 O         142.1018  143.8000  170.6144 O.3     1  UNL1       -0.4413
     23 N         140.4418  137.7998  163.6756 N.pl3   1  UNL1       -0.3124
     24 H         140.3511  136.8484  163.9118 H       1  UNL1        0.1522
     25 C         140.0163  138.2798  162.3197 C.ar    1  UNL1        0.0495
     26 C         138.6981  138.9751  162.1497 C.ar    1  UNL1        0.0144
     27 C         138.2726  139.4551  160.7937 C.ar    1  UNL1       -0.0017
     28 C         139.1653  139.2397  159.6077 C.ar    1  UNL1       -0.0067
     29 C         140.4835  138.5444  159.7777 C.ar    1  UNL1        0.0511
     30 C         140.9090  138.0645  161.1336 C.ar    1  UNL1        0.0292
     31 N         141.1474  138.4749  158.4344 N.am    1  UNL1       -0.2574
     32 C         142.4845  137.8608  158.1425 C.2     1  UNL1        0.2457
     33 O         143.2836  137.2418  159.2508 O.2     1  UNL1       -0.2730
     34 C         140.2395  139.1272  157.4343 C.3     1  UNL1        0.1029
     35 C         139.0145  139.5999  158.1594 C.3     1  UNL1        0.0495
     36 C         143.0224  137.8656  156.7423 C.3     1  UNL1        0.1591
     37 N         142.9352  136.6269  155.9010 N.3     1  UNL1       -0.2608
     38 C         143.5317  135.3420  156.3940 C.3     1  UNL1        0.1024
     39 C         143.4444  134.1031  155.5527 C.3     1  UNL1        0.1312
     40 C         144.0410  132.8182  156.0457 C.3     1  UNL1        0.0335
     41 O         142.7607  134.1493  154.2184 O.3     1  UNL1       -0.3559
     42 C         142.1641  135.4343  153.7254 C.3     1  UNL1        0.1312
     43 C         141.4804  135.4804  152.3911 C.3     1  UNL1        0.0335
     44 C         142.2514  136.6730  154.5667 C.3     1  UNL1        0.1024
@<TRIPOS>BOND
     1    21    22    1
     2    22    19    1
     3    19    20    2
     4    19     1    1
     5     1     2   ar
     6     2     3   ar
     7     3     4   ar
     8     4     5   ar
     9     5     6   ar
    10     5     7    1
    11     7     8   am
    12     8     9    2
    13     8    10    1
    14    10    11    2
    15    11    23    1
    16    23    25    1
    17    25    26   ar
    18    26    27   ar
    19    27    28   ar
    20    28    29   ar
    21    29    30   ar
    22    29    31    1
    23    31    32   am
    24    32    33    2
    25    32    36    1
    26    36    37    1
    27    37    38    1
    28    38    39    1
    29    39    40    1
    30    39    41    1
    31    41    42    1
    32    42    43    1
    33    42    44    1
    34    31    34    1
    35    34    35    1
    36    11    13    1
    37    13    14   ar
    38    14    15   ar
    39    15    16   ar
    40    16    17   ar
    41    17    18   ar
    42     6     1   ar
    43    30    25   ar
    44    44    37    1
    45    18    13   ar
    46    10     4    1
    47    35    28    1
    48     7    12    1
    49    23    24    1
@<TRIPOS>MOLECULE
*****
 44 49 0 0 0
SMALL
GASTEIGER

@<TRIPOS>ATOM
      1 C         137.1525  138.7418  170.1243 C.ar    1  UNL1        0.0769
      2 C         138.2460  139.6982  170.4978 C.ar    1  UNL1        0.0065
      3 C         139.1410  140.2658  169.4363 C.ar    1  UNL1        0.0016
      4 C         138.9425  139.8770  168.0012 C.ar    1  UNL1        0.0191
      5 C         137.8490  138.9206  167.6277 C.ar    1  UNL1        0.0509
      6 C         136.9540  138.3530  168.6892 C.ar    1  UNL1        0.0211
      7 N         137.8935  138.7232  166.1413 N.am    1  UNL1       -0.2803
      8 C         139.0145  139.5576  165.5963 C.2     1  UNL1        0.2507
      9 O         139.4166  139.6609  164.1549 O.2     1  UNL1       -0.2698
     10 C         139.6628  140.2707  166.7458 C.2     1  UNL1        0.0682
     11 C         140.8270  141.2122  166.6556 C.2     1  UNL1        0.0527
     12 H         137.2925  138.1471  165.6158 H       1  UNL1        0.1552
     13 C         141.3706  141.8539  167.8977 C.ar    1  UNL1        0.0136
     14 C         140.6170  142.9713  168.5560 C.ar    1  UNL1        0.0012
     15 C         141.1607  143.6130  169.7982 C.ar    1  UNL1        0.0000
     16 C         142.4580  143.1372  170.3818 C.ar    1  UNL1        0.0000
     17 C         143.2117  142.0198  169.7234 C.ar    1  UNL1        0.0000
     18 C         142.6680  141.3782  168.4814 C.ar    1  UNL1        0.0012
     19 C         136.2576  138.1742  171.1858 C.2     1  UNL1        0.3414
     20 O         135.1951  139.0309  171.8079 O.2     1  UNL1       -0.2449
     21 C         136.2220  136.3802  173.0647 C.3     1  UNL1        0.2560
     22 O         136.4251  136.7498  171.6252 O.3     1  UNL1       -0.4413
     23 N         141.4477  141.5120  165.3234 N.pl3   1  UNL1       -0.3124
     24 H         142.1749  140.9440  164.9801 H       1  UNL1        0.1522
     25 C         140.9606  142.6773  164.5142 C.ar    1  UNL1        0.0495
     26 C         140.0361  143.6846  165.1311 C.ar    1  UNL1        0.0144
     27 C         139.5489  144.8499  164.3220 C.ar    1  UNL1       -0.0017
     28 C         139.9863  145.0079  162.8958 C.ar    1  UNL1       -0.0067
     29 C         140.9107  144.0006  162.2790 C.ar    1  UNL1        0.0511
     30 C         141.3979  142.8353  163.0881 C.ar    1  UNL1        0.0292
     31 N         141.1691  144.4159  160.8609 N.am    1  UNL1       -0.2574
     32 C         142.0395  143.6940  159.8754 C.2     1  UNL1        0.2457
     33 O         142.7457  142.4342  160.2805 O.2     1  UNL1       -0.2730
     34 C         140.4043  145.6799  160.6015 C.3     1  UNL1        0.1029
     35 C         139.6732  146.0458  161.8591 C.3     1  UNL1        0.0495
     36 C         142.2036  144.2318  158.4848 C.3     1  UNL1        0.1591
     37 N         141.0016  144.4239  157.6082 N.3     1  UNL1       -0.2608
     38 C         140.7990  145.7236  156.8875 C.3     1  UNL1        0.1024
     39 C         139.5970  145.9158  156.0109 C.3     1  UNL1        0.1312
     40 C         139.3945  147.2155  155.2901 C.3     1  UNL1        0.0335
     41 O         138.5976  144.8081  155.8551 O.3     1  UNL1       -0.3559
     42 C         138.8003  143.5083  156.5759 C.3     1  UNL1        0.1312
     43 C         137.8009  142.4006  156.4202 C.3     1  UNL1        0.0335
     44 C         140.0022  143.3162  157.4525 C.3     1  UNL1        0.1024
@<TRIPOS>BOND
     1    21    22    1
     2    22    19    1
     3    19    20    2
     4    19     1    1
     5     1     2   ar
     6     2     3   ar
     7     3     4   ar
     8     4     5   ar
     9     5     6   ar
    10     5     7    1
    11     7     8   am
    12     8     9    2
    13     8    10    1
    14    10    11    2
    15    11    23    1
    16    23    25    1
    17    25    26   ar
    18    26    27   ar
    19    27    28   ar
    20    28    29   ar
    21    29    30   ar
    22    29    31    1
    23    31    32   am
    24    32    33    2
    25    32    36    1
    26    36    37    1
    27    37    38    1
    28    38    39    1
    29    39    40    1
    30    39    41    1
    31    41    42    1
    32    42    43    1
    33    42    44    1
    34    31    34    1
    35    34    35    1
    36    11    13    1
    37    13    14   ar
    38    14    15   ar
    39    15    16   ar
    40    16    17   ar
    41    17    18   ar
    42     6     1   ar
    43    30    25   ar
    44    44    37    1
    45    18    13   ar
    46    10     4    1
    47    35    28    1
    48     7    12    1
    49    23    24    1
@<TRIPOS>MOLECULE
*****
 44 49 0 0 0
SMALL
GASTEIGER

@<TRIPOS>ATOM
      1 C         140.9162  142.0738  168.9078 C.ar    1  UNL1        0.0769
      2 C         142.0349  142.1268  167.9099 C.ar    1  UNL1        0.0065
      3 C         141.9998  141.2458  166.6964 C.ar    1  UNL1        0.0016
      4 C         140.8461  140.3118  166.4807 C.ar    1  UNL1        0.0191
      5 C         139.7274  140.2589  167.4785 C.ar    1  UNL1        0.0509
      6 C         139.7625  141.1398  168.6921 C.ar    1  UNL1        0.0211
      7 N         138.7289  139.2459  167.0022 N.am    1  UNL1       -0.2803
      8 C         139.2305  138.6728  165.7099 C.2     1  UNL1        0.2507
      9 O         138.5442  137.6249  164.8847 O.2     1  UNL1       -0.2698
     10 C         140.5390  139.3316  165.3876 C.2     1  UNL1        0.0682
     11 C         141.3909  139.0582  164.1837 C.2     1  UNL1        0.0527
     12 H         137.8914  139.0003  167.4577 H       1  UNL1        0.1552
     13 C         142.6815  139.7987  163.9942 C.ar    1  UNL1        0.0136
     14 C         143.9631  139.2171  164.5129 C.ar    1  UNL1        0.0012
     15 C         145.2538  139.9577  164.3234 C.ar    1  UNL1        0.0000
     16 C         145.2627  141.2799  163.6152 C.ar    1  UNL1        0.0000
     17 C         143.9811  141.8616  163.0964 C.ar    1  UNL1        0.0000
     18 C         142.6905  141.1210  163.2859 C.ar    1  UNL1        0.0012
     19 C         140.9512  142.9548  170.1213 C.2     1  UNL1        0.3414
     20 O         140.3815  144.3410  170.0585 O.2     1  UNL1       -0.2449
     21 C         142.0915  141.0505  171.4715 C.3     1  UNL1        0.2560
     22 O         141.5560  142.4497  171.3976 O.3     1  UNL1       -0.4413
     23 N         140.9521  138.0443  163.1691 N.pl3   1  UNL1       -0.3124
     24 H         140.4193  137.2656  163.4500 H       1  UNL1        0.1522
     25 C         141.3252  138.2168  161.7265 C.ar    1  UNL1        0.0495
     26 C         142.5986  137.6202  161.2046 C.ar    1  UNL1        0.0144
     27 C         142.9717  137.7927  159.7620 C.ar    1  UNL1       -0.0017
     28 C         142.0714  138.5619  158.8413 C.ar    1  UNL1       -0.0067
     29 C         140.7980  139.1585  159.3632 C.ar    1  UNL1        0.0511
     30 C         140.4249  138.9860  160.8057 C.ar    1  UNL1        0.0292
     31 N         140.1149  139.8599  158.2267 N.am    1  UNL1       -0.2574
     32 C         138.8097  140.5954  158.3015 C.2     1  UNL1        0.2457
     33 O         138.0671  140.6750  159.6023 O.2     1  UNL1       -0.2730
     34 C         140.9662  139.6968  157.0026 C.3     1  UNL1        0.1029
     35 C         142.1754  138.8945  157.3824 C.3     1  UNL1        0.0495
     36 C         138.2472  141.2513  157.0753 C.3     1  UNL1        0.1591
     37 N         137.1979  140.5504  156.2643 N.3     1  UNL1       -0.2608
     38 C         137.5898  139.4568  155.3154 C.3     1  UNL1        0.1024
     39 C         136.5406  138.7558  154.5043 C.3     1  UNL1        0.1312
     40 C         136.9324  137.6622  153.5555 C.3     1  UNL1        0.0335
     41 O         135.0995  139.1486  154.6421 O.3     1  UNL1       -0.3559
     42 C         134.7076  140.2423  155.5910 C.3     1  UNL1        0.1312
     43 C         133.2665  140.6351  155.7288 C.3     1  UNL1        0.0335
     44 C         135.7569  140.9432  156.4021 C.3     1  UNL1        0.1024
@<TRIPOS>BOND
     1    21    22    1
     2    22    19    1
     3    19    20    2
     4    19     1    1
     5     1     2   ar
     6     2     3   ar
     7     3     4   ar
     8     4     5   ar
     9     5     6   ar
    10     5     7    1
    11     7     8   am
    12     8     9    2
    13     8    10    1
    14    10    11    2
    15    11    23    1
    16    23    25    1
    17    25    26   ar
    18    26    27   ar
    19    27    28   ar
    20    28    29   ar
    21    29    30   ar
    22    29    31    1
    23    31    32   am
    24    32    33    2
    25    32    36    1
    26    36    37    1
    27    37    38    1
    28    38    39    1
    29    39    40    1
    30    39    41    1
    31    41    42    1
    32    42    43    1
    33    42    44    1
    34    31    34    1
    35    34    35    1
    36    11    13    1
    37    13    14   ar
    38    14    15   ar
    39    15    16   ar
    40    16    17   ar
    41    17    18   ar
    42     6     1   ar
    43    30    25   ar
    44    44    37    1
    45    18    13   ar
    46    10     4    1
    47    35    28    1
    48     7    12    1
    49    23    24    1
@<TRIPOS>MOLECULE
*****
 44 49 0 0 0
SMALL
GASTEIGER

@<TRIPOS>ATOM
      1 C         140.2331  140.2673  168.7136 C.ar    1  UNL1        0.0769
      2 C         141.5186  140.5010  167.9769 C.ar    1  UNL1        0.0065
      3 C         141.6021  140.2187  166.5060 C.ar    1  UNL1        0.0016
      4 C         140.4001  139.7027  165.7720 C.ar    1  UNL1        0.0191
      5 C         139.1146  139.4689  166.5087 C.ar    1  UNL1        0.0509
      6 C         139.0311  139.7512  167.9795 C.ar    1  UNL1        0.0211
      7 N         138.1032  138.9582  165.5257 N.am    1  UNL1       -0.2803
      8 C         138.7636  138.8764  164.1814 C.2     1  UNL1        0.2507
      9 O         138.1178  138.4155  162.9084 O.2     1  UNL1       -0.2698
     10 C         140.1832  139.3365  164.3336 C.2     1  UNL1        0.0682
     11 C         141.2062  139.4164  163.2396 C.2     1  UNL1        0.0527
     12 H         137.1698  138.7188  165.7274 H       1  UNL1        0.1552
     13 C         142.5936  139.8985  163.5438 C.ar    1  UNL1        0.0136
     14 C         143.6475  138.9243  163.9797 C.ar    1  UNL1        0.0012
     15 C         145.0350  139.4065  164.2839 C.ar    1  UNL1        0.0000
     16 C         145.3685  140.8630  164.1522 C.ar    1  UNL1        0.0000
     17 C         144.3146  141.8373  163.7163 C.ar    1  UNL1        0.0000
     18 C         142.9272  141.3551  163.4121 C.ar    1  UNL1        0.0012
     19 C         140.1496  140.5496  170.1844 C.2     1  UNL1        0.3414
     20 O         139.5278  139.5436  171.1071 O.2     1  UNL1       -0.2449
     21 C         139.8347  143.0715  170.7235 C.3     1  UNL1        0.2560
     22 O         140.6879  141.8378  170.7326 O.3     1  UNL1       -0.4413
     23 N         140.8419  139.0141  161.8412 N.pl3   1  UNL1       -0.3124
     24 H         140.6209  138.0760  161.6406 H       1  UNL1        0.1522
     25 C         140.8142  140.0413  160.7484 C.ar    1  UNL1        0.0495
     26 C         139.8809  141.2117  160.8426 C.ar    1  UNL1        0.0144
     27 C         139.8533  142.2388  159.7498 C.ar    1  UNL1       -0.0017
     28 C         140.7590  142.0956  158.5627 C.ar    1  UNL1       -0.0067
     29 C         141.6924  140.9251  158.4685 C.ar    1  UNL1        0.0511
     30 C         141.7200  139.8980  159.5613 C.ar    1  UNL1        0.0292
     31 N         142.4630  141.0487  157.1876 N.am    1  UNL1       -0.2574
     32 C         143.5074  140.0932  156.6912 C.2     1  UNL1        0.2457
     33 O         143.8618  138.8820  157.5019 O.2     1  UNL1       -0.2730
     34 C         142.0059  142.2956  156.4901 C.3     1  UNL1        0.1029
     35 C         140.9528  142.9425  157.3400 C.3     1  UNL1        0.0495
     36 C         144.1974  140.3490  155.3841 C.3     1  UNL1        0.1591
     37 N         145.4921  141.1058  155.3550 N.3     1  UNL1       -0.2608
     38 C         145.9824  141.8010  156.5904 C.3     1  UNL1        0.1024
     39 C         147.2772  142.5578  156.5613 C.3     1  UNL1        0.1312
     40 C         147.7675  143.2530  157.7967 C.3     1  UNL1        0.0335
     41 O         148.0816  142.6195  155.2967 O.3     1  UNL1       -0.3559
     42 C         147.5912  141.9242  154.0613 C.3     1  UNL1        0.1312
     43 C         148.3957  141.9858  152.7967 C.3     1  UNL1        0.0335
     44 C         146.2965  141.1674  154.0904 C.3     1  UNL1        0.1024
@<TRIPOS>BOND
     1    21    22    1
     2    22    19    1
     3    19    20    2
     4    19     1    1
     5     1     2   ar
     6     2     3   ar
     7     3     4   ar
     8     4     5   ar
     9     5     6   ar
    10     5     7    1
    11     7     8   am
    12     8     9    2
    13     8    10    1
    14    10    11    2
    15    11    23    1
    16    23    25    1
    17    25    26   ar
    18    26    27   ar
    19    27    28   ar
    20    28    29   ar
    21    29    30   ar
    22    29    31    1
    23    31    32   am
    24    32    33    2
    25    32    36    1
    26    36    37    1
    27    37    38    1
    28    38    39    1
    29    39    40    1
    30    39    41    1
    31    41    42    1
    32    42    43    1
    33    42    44    1
    34    31    34    1
    35    34    35    1
    36    11    13    1
    37    13    14   ar
    38    14    15   ar
    39    15    16   ar
    40    16    17   ar
    41    17    18   ar
    42     6     1   ar
    43    30    25   ar
    44    44    37    1
    45    18    13   ar
    46    10     4    1
    47    35    28    1
    48     7    12    1
    49    23    24    1
@<TRIPOS>MOLECULE
*****
 44 49 0 0 0
SMALL
GASTEIGER

@<TRIPOS>ATOM
      1 C         141.0184  141.6708  169.4202 C.ar    1  UNL1        0.0769
      2 C         142.0937  141.6693  168.3745 C.ar    1  UNL1        0.0065
      3 C         141.9379  140.8321  167.1396 C.ar    1  UNL1        0.0016
      4 C         140.7068  139.9964  166.9504 C.ar    1  UNL1        0.0191
      5 C         139.6314  139.9979  167.9961 C.ar    1  UNL1        0.0509
      6 C         139.7872  140.8351  169.2310 C.ar    1  UNL1        0.0211
      7 N         138.5374  139.0798  167.5374 N.am    1  UNL1       -0.2803
      8 C         138.9367  138.5109  166.2081 C.2     1  UNL1        0.2507
      9 O         138.1359  137.5451  165.3859 O.2     1  UNL1       -0.2698
     10 C         140.2775  139.0774  165.8454 C.2     1  UNL1        0.0682
     11 C         141.0528  138.7776  164.5968 C.2     1  UNL1        0.0527
     12 H         137.7037  138.8849  168.0234 H       1  UNL1        0.1552
     13 C         142.3878  139.4227  164.3698 C.ar    1  UNL1        0.0136
     14 C         142.4711  140.7503  163.6766 C.ar    1  UNL1        0.0012
     15 C         143.8062  141.3954  163.4496 C.ar    1  UNL1        0.0000
     16 C         145.0579  140.7128  163.9158 C.ar    1  UNL1        0.0000
     17 C         144.9746  139.3852  164.6089 C.ar    1  UNL1        0.0000
     18 C         143.6396  138.7402  164.8359 C.ar    1  UNL1        0.0012
     19 C         141.1742  142.5079  170.6550 C.2     1  UNL1        0.3414
     20 O         140.4247  142.1491  171.9038 O.2     1  UNL1       -0.2449
     21 C         143.5495  143.5347  170.8863 C.3     1  UNL1        0.2560
     22 O         142.0794  143.7039  170.6411 O.3     1  UNL1       -0.4413
     23 N         140.4931  137.8326  163.5752 N.pl3   1  UNL1       -0.3124
     24 H         140.4570  136.8672  163.7651 H       1  UNL1        0.1522
     25 C         139.9884  138.3583  162.2642 C.ar    1  UNL1        0.0495
     26 C         138.5739  138.8430  162.1449 C.ar    1  UNL1        0.0144
     27 C         138.0692  139.3688  160.8339 C.ar    1  UNL1       -0.0017
     28 C         138.9790  139.4099  159.6420 C.ar    1  UNL1       -0.0067
     29 C         140.3935  138.9252  159.7612 C.ar    1  UNL1        0.0511
     30 C         140.8982  138.3994  161.0723 C.ar    1  UNL1        0.0292
     31 N         141.0530  139.0866  158.4237 N.am    1  UNL1       -0.2574
     32 C         142.4706  138.7268  158.0905 C.2     1  UNL1        0.2457
     33 O         143.3653  138.1476  159.1460 O.2     1  UNL1       -0.2730
     34 C         140.0461  139.6711  157.4779 C.3     1  UNL1        0.1029
     35 C         138.7643  139.8709  158.2309 C.3     1  UNL1        0.0495
     36 C         142.9935  138.9461  156.7018 C.3     1  UNL1        0.1591
     37 N         143.5541  140.2822  156.3138 N.3     1  UNL1       -0.2608
     38 C         144.9976  140.5945  156.5756 C.3     1  UNL1        0.1024
     39 C         145.5583  141.9306  156.1875 C.3     1  UNL1        0.1312
     40 C         147.0018  142.2429  156.4493 C.3     1  UNL1        0.0335
     41 O         144.6753  142.9544  155.5377 O.3     1  UNL1       -0.3559
     42 C         143.2316  142.6420  155.2760 C.3     1  UNL1        0.1312
     43 C         142.3487  143.6658  154.6262 C.3     1  UNL1        0.0335
     44 C         142.6711  141.3059  155.6640 C.3     1  UNL1        0.1024
@<TRIPOS>BOND
     1    21    22    1
     2    22    19    1
     3    19    20    2
     4    19     1    1
     5     1     2   ar
     6     2     3   ar
     7     3     4   ar
     8     4     5   ar
     9     5     6   ar
    10     5     7    1
    11     7     8   am
    12     8     9    2
    13     8    10    1
    14    10    11    2
    15    11    23    1
    16    23    25    1
    17    25    26   ar
    18    26    27   ar
    19    27    28   ar
    20    28    29   ar
    21    29    30   ar
    22    29    31    1
    23    31    32   am
    24    32    33    2
    25    32    36    1
    26    36    37    1
    27    37    38    1
    28    38    39    1
    29    39    40    1
    30    39    41    1
    31    41    42    1
    32    42    43    1
    33    42    44    1
    34    31    34    1
    35    34    35    1
    36    11    13    1
    37    13    14   ar
    38    14    15   ar
    39    15    16   ar
    40    16    17   ar
    41    17    18   ar
    42     6     1   ar
    43    30    25   ar
    44    44    37    1
    45    18    13   ar
    46    10     4    1
    47    35    28    1
    48     7    12    1
    49    23    24    1
@<TRIPOS>MOLECULE
*****
 44 49 0 0 0
SMALL
GASTEIGER

@<TRIPOS>ATOM
      1 C         139.9057  140.0691  168.6998 C.ar    1  UNL1        0.0769
      2 C         139.1599  139.9245  167.4064 C.ar    1  UNL1        0.0065
      3 C         139.9011  139.5853  166.1472 C.ar    1  UNL1        0.0016
      4 C         141.3879  139.3907  166.1813 C.ar    1  UNL1        0.0191
      5 C         142.1337  139.5352  167.4747 C.ar    1  UNL1        0.0509
      6 C         141.3926  139.8744  168.7339 C.ar    1  UNL1        0.0211
      7 N         143.5877  139.2867  167.2017 N.am    1  UNL1       -0.2803
      8 C         143.7404  138.9886  165.7396 C.2     1  UNL1        0.2507
      9 O         145.0268  138.6804  165.0322 O.2     1  UNL1       -0.2698
     10 C         142.3809  139.0529  165.1090 C.2     1  UNL1        0.0682
     11 C         142.0691  138.8202  163.6603 C.2     1  UNL1        0.0527
     12 H         144.3141  139.3145  167.8656 H       1  UNL1        0.1552
     13 C         140.6541  138.9190  163.1724 C.ar    1  UNL1        0.0136
     14 C         140.0930  140.2484  162.7630 C.ar    1  UNL1        0.0012
     15 C         138.6780  140.3472  162.2750 C.ar    1  UNL1        0.0000
     16 C         137.8241  139.1164  162.1965 C.ar    1  UNL1        0.0000
     17 C         138.3852  137.7870  162.6059 C.ar    1  UNL1        0.0000
     18 C         139.8002  137.6882  163.0938 C.ar    1  UNL1        0.0012
     19 C         139.1646  140.4083  169.9590 C.2     1  UNL1        0.3414
     20 O         137.8761  139.7116  170.2818 O.2     1  UNL1       -0.2449
     21 C         139.8673  142.8636  170.4360 C.3     1  UNL1        0.2560
     22 O         139.7120  141.4442  170.8956 O.3     1  UNL1       -0.4413
     23 N         143.1722  138.4886  162.6995 N.pl3   1  UNL1       -0.3124
     24 H         143.6976  137.6645  162.8186 H       1  UNL1        0.1522
     25 C         143.4750  139.4126  161.5574 C.ar    1  UNL1        0.0495
     26 C         143.9755  140.8005  161.8278 C.ar    1  UNL1        0.0144
     27 C         144.2782  141.7245  160.6857 C.ar    1  UNL1       -0.0017
     28 C         144.0805  141.2606  159.2730 C.ar    1  UNL1       -0.0067
     29 C         143.5801  139.8727  159.0025 C.ar    1  UNL1        0.0511
     30 C         143.2773  138.9487  160.1447 C.ar    1  UNL1        0.0292
     31 N         143.4831  139.6964  157.5161 N.am    1  UNL1       -0.2574
     32 C         143.0258  138.4584  156.8030 C.2     1  UNL1        0.2457
     33 O         142.6133  137.2493  157.5889 O.2     1  UNL1       -0.2730
     34 C         143.9236  140.9754  156.8679 C.3     1  UNL1        0.1029
     35 C         144.2929  141.9421  157.9537 C.3     1  UNL1        0.0495
     36 C         142.9811  138.4297  155.3039 C.3     1  UNL1        0.1591
     37 N         142.0037  137.5360  154.5998 N.3     1  UNL1       -0.2608
     38 C         142.4405  136.1888  154.1057 C.3     1  UNL1        0.1024
     39 C         141.4631  135.2950  153.4014 C.3     1  UNL1        0.1312
     40 C         141.8999  133.9478  152.9074 C.3     1  UNL1        0.0335
     41 O         140.0488  135.7485  153.1914 O.3     1  UNL1       -0.3559
     42 C         139.6119  137.0958  153.6855 C.3     1  UNL1        0.1312
     43 C         138.1976  137.5493  153.4755 C.3     1  UNL1        0.0335
     44 C         140.5894  137.9895  154.3897 C.3     1  UNL1        0.1024
@<TRIPOS>BOND
     1    21    22    1
     2    22    19    1
     3    19    20    2
     4    19     1    1
     5     1     2   ar
     6     2     3   ar
     7     3     4   ar
     8     4     5   ar
     9     5     6   ar
    10     5     7    1
    11     7     8   am
    12     8     9    2
    13     8    10    1
    14    10    11    2
    15    11    23    1
    16    23    25    1
    17    25    26   ar
    18    26    27   ar
    19    27    28   ar
    20    28    29   ar
    21    29    30   ar
    22    29    31    1
    23    31    32   am
    24    32    33    2
    25    32    36    1
    26    36    37    1
    27    37    38    1
    28    38    39    1
    29    39    40    1
    30    39    41    1
    31    41    42    1
    32    42    43    1
    33    42    44    1
    34    31    34    1
    35    34    35    1
    36    11    13    1
    37    13    14   ar
    38    14    15   ar
    39    15    16   ar
    40    16    17   ar
    41    17    18   ar
    42     6     1   ar
    43    30    25   ar
    44    44    37    1
    45    18    13   ar
    46    10     4    1
    47    35    28    1
    48     7    12    1
    49    23    24    1
@<TRIPOS>MOLECULE
*****
 44 49 0 0 0
SMALL
GASTEIGER

@<TRIPOS>ATOM
      1 C         141.3789  141.3016  169.5429 C.ar    1  UNL1        0.0769
      2 C         140.5127  142.1325  168.6433 C.ar    1  UNL1        0.0065
      3 C         140.5891  141.9554  167.1557 C.ar    1  UNL1        0.0016
      4 C         141.5316  140.9475  166.5678 C.ar    1  UNL1        0.0191
      5 C         142.3978  140.1167  167.4674 C.ar    1  UNL1        0.0509
      6 C         142.3215  140.2938  168.9550 C.ar    1  UNL1        0.0211
      7 N         143.2250  139.2092  166.6058 N.am    1  UNL1       -0.2803
      8 C         142.8700  139.4793  165.1737 C.2     1  UNL1        0.2507
      9 O         143.4583  138.7951  163.9753 O.2     1  UNL1       -0.2698
     10 C         141.8235  140.5536  165.1502 C.2     1  UNL1        0.0682
     11 C         141.1814  141.1324  163.9243 C.2     1  UNL1        0.0527
     12 H         143.8850  138.5518  166.9244 H       1  UNL1        0.1552
     13 C         140.1441  142.2076  164.0575 C.ar    1  UNL1        0.0136
     14 C         140.5546  143.6503  164.0555 C.ar    1  UNL1        0.0012
     15 C         139.5172  144.7255  164.1887 C.ar    1  UNL1        0.0000
     16 C         138.0692  144.3580  164.3239 C.ar    1  UNL1        0.0000
     17 C         137.6586  142.9153  164.3259 C.ar    1  UNL1        0.0000
     18 C         138.6960  141.8401  164.1927 C.ar    1  UNL1        0.0012
     19 C         141.3026  141.4787  171.0305 C.2     1  UNL1        0.3414
     20 O         140.3985  140.6015  171.8447 O.2     1  UNL1       -0.2449
     21 C         143.0523  143.3943  170.8925 C.3     1  UNL1        0.2560
     22 O         142.1303  142.5330  171.7037 O.3     1  UNL1       -0.4413
     23 N         141.5767  140.6359  162.5652 N.pl3   1  UNL1       -0.3124
     24 H         142.4183  140.1386  162.4483 H       1  UNL1        0.1522
     25 C         140.6898  140.8972  161.3840 C.ar    1  UNL1        0.0495
     26 C         139.6849  139.8682  160.9585 C.ar    1  UNL1        0.0144
     27 C         138.7979  140.1295  159.7774 C.ar    1  UNL1       -0.0017
     28 C         138.9159  141.4198  159.0217 C.ar    1  UNL1       -0.0067
     29 C         139.9209  142.4489  159.4473 C.ar    1  UNL1        0.0511
     30 C         140.8078  142.1876  160.6284 C.ar    1  UNL1        0.0292
     31 N         139.8092  143.6189  158.5153 N.am    1  UNL1       -0.2574
     32 C         140.6278  144.8745  158.5744 C.2     1  UNL1        0.2457
     33 O         141.6717  145.0398  159.6388 O.2     1  UNL1       -0.2730
     34 C         138.7353  143.3129  157.5138 C.3     1  UNL1        0.1029
     35 C         138.1832  141.9538  157.8268 C.3     1  UNL1        0.0495
     36 C         140.4026  145.9647  157.5691 C.3     1  UNL1        0.1591
     37 N         141.0469  145.8830  156.2171 N.3     1  UNL1       -0.2608
     38 C         140.5871  146.7864  155.1114 C.3     1  UNL1        0.1024
     39 C         141.2315  146.7047  153.7592 C.3     1  UNL1        0.1312
     40 C         140.7717  147.6081  152.6536 C.3     1  UNL1        0.0335
     41 O         142.3355  145.7197  153.5128 O.3     1  UNL1       -0.3559
     42 C         142.7953  144.8163  154.6186 C.3     1  UNL1        0.1312
     43 C         143.8994  143.8313  154.3722 C.3     1  UNL1        0.0335
     44 C         142.1510  144.8980  155.9707 C.3     1  UNL1        0.1024
@<TRIPOS>BOND
     1    21    22    1
     2    22    19    1
     3    19    20    2
     4    19     1    1
     5     1     2   ar
     6     2     3   ar
     7     3     4   ar
     8     4     5   ar
     9     5     6   ar
    10     5     7    1
    11     7     8   am
    12     8     9    2
    13     8    10    1
    14    10    11    2
    15    11    23    1
    16    23    25    1
    17    25    26   ar
    18    26    27   ar
    19    27    28   ar
    20    28    29   ar
    21    29    30   ar
    22    29    31    1
    23    31    32   am
    24    32    33    2
    25    32    36    1
    26    36    37    1
    27    37    38    1
    28    38    39    1
    29    39    40    1
    30    39    41    1
    31    41    42    1
    32    42    43    1
    33    42    44    1
    34    31    34    1
    35    34    35    1
    36    11    13    1
    37    13    14   ar
    38    14    15   ar
    39    15    16   ar
    40    16    17   ar
    41    17    18   ar
    42     6     1   ar
    43    30    25   ar
    44    44    37    1
    45    18    13   ar
    46    10     4    1
    47    35    28    1
    48     7    12    1
    49    23    24    1
@<TRIPOS>MOLECULE
*****
 44 49 0 0 0
SMALL
GASTEIGER

@<TRIPOS>ATOM
      1 C         140.4601  140.8808  168.3124 C.ar    1  UNL1        0.0769
      2 C         140.2063  141.9797  167.3235 C.ar    1  UNL1        0.0065
      3 C         141.0331  142.0711  166.0752 C.ar    1  UNL1        0.0016
      4 C         142.1136  141.0636  165.8158 C.ar    1  UNL1        0.0191
      5 C         142.3674  139.9647  166.8047 C.ar    1  UNL1        0.0509
      6 C         141.5406  139.8733  168.0530 C.ar    1  UNL1        0.0211
      7 N         143.4931  139.1220  166.2825 N.am    1  UNL1       -0.2803
      8 C         143.9350  139.7001  164.9709 C.2     1  UNL1        0.2507
      9 O         145.0362  139.1712  164.1004 O.2     1  UNL1       -0.2698
     10 C         143.0824  140.9001  164.6825 C.2     1  UNL1        0.0682
     11 C         143.1813  141.7818  163.4730 C.2     1  UNL1        0.0527
     12 H         143.8748  138.3287  166.7232 H       1  UNL1        0.1552
     13 C         142.2559  142.9524  163.3205 C.ar    1  UNL1        0.0136
     14 C         140.9153  142.7694  162.6731 C.ar    1  UNL1        0.0012
     15 C         139.9899  143.9401  162.5206 C.ar    1  UNL1        0.0000
     16 C         140.4052  145.2938  163.0156 C.ar    1  UNL1        0.0000
     17 C         141.7458  145.4769  163.6630 C.ar    1  UNL1        0.0000
     18 C         142.6712  144.3062  163.8155 C.ar    1  UNL1        0.0012
     19 C         139.6334  140.7894  169.5606 C.2     1  UNL1        0.3414
     20 O         138.5095  139.7997  169.6450 O.2     1  UNL1       -0.2449
     21 C         141.3435  141.8592  171.1981 C.3     1  UNL1        0.2560
     22 O         139.9305  141.6878  170.7245 O.3     1  UNL1       -0.4413
     23 N         144.2057  141.4929  162.4160 N.pl3   1  UNL1       -0.3124
     24 H         145.1603  141.6476  162.6003 H       1  UNL1        0.1522
     25 C         143.7755  140.9684  161.0782 C.ar    1  UNL1        0.0495
     26 C         143.6905  139.4892  160.8445 C.ar    1  UNL1        0.0144
     27 C         143.2603  138.9646  159.5067 C.ar    1  UNL1       -0.0017
     28 C         142.9151  139.9194  158.4024 C.ar    1  UNL1       -0.0067
     29 C         143.0001  141.3986  158.6361 C.ar    1  UNL1        0.0511
     30 C         143.4303  141.9231  159.9739 C.ar    1  UNL1        0.0292
     31 N         142.6006  142.0919  157.3673 N.am    1  UNL1       -0.2574
     32 C         142.5431  143.5756  157.1538 C.2     1  UNL1        0.2457
     33 O         142.9058  144.5087  158.2709 O.2     1  UNL1       -0.2730
     34 C         142.2687  141.0412  156.3496 C.3     1  UNL1        0.1029
     35 C         142.4631  139.6985  156.9893 C.3     1  UNL1        0.0495
     36 C         142.1229  144.1261  155.8233 C.3     1  UNL1        0.1591
     37 N         140.7659  144.7447  155.6623 N.3     1  UNL1       -0.2608
     38 C         139.5401  143.8805  155.6862 C.3     1  UNL1        0.1024
     39 C         138.1831  144.4990  155.5251 C.3     1  UNL1        0.1312
     40 C         136.9573  143.6348  155.5490 C.3     1  UNL1        0.0335
     41 O         138.0519  145.9818  155.3402 O.3     1  UNL1       -0.3559
     42 C         139.2777  146.8460  155.3163 C.3     1  UNL1        0.1312
     43 C         139.1465  148.3288  155.1314 C.3     1  UNL1        0.0335
     44 C         140.6347  146.2274  155.4773 C.3     1  UNL1        0.1024
@<TRIPOS>BOND
     1    21    22    1
     2    22    19    1
     3    19    20    2
     4    19     1    1
     5     1     2   ar
     6     2     3   ar
     7     3     4   ar
     8     4     5   ar
     9     5     6   ar
    10     5     7    1
    11     7     8   am
    12     8     9    2
    13     8    10    1
    14    10    11    2
    15    11    23    1
    16    23    25    1
    17    25    26   ar
    18    26    27   ar
    19    27    28   ar
    20    28    29   ar
    21    29    30   ar
    22    29    31    1
    23    31    32   am
    24    32    33    2
    25    32    36    1
    26    36    37    1
    27    37    38    1
    28    38    39    1
    29    39    40    1
    30    39    41    1
    31    41    42    1
    32    42    43    1
    33    42    44    1
    34    31    34    1
    35    34    35    1
    36    11    13    1
    37    13    14   ar
    38    14    15   ar
    39    15    16   ar
    40    16    17   ar
    41    17    18   ar
    42     6     1   ar
    43    30    25   ar
    44    44    37    1
    45    18    13   ar
    46    10     4    1
    47    35    28    1
    48     7    12    1
    49    23    24    1
@<TRIPOS>MOLECULE
*****
 44 49 0 0 0
SMALL
GASTEIGER

@<TRIPOS>ATOM
      1 C         140.5123  146.3485  156.1293 C.ar    1  UNL1        0.0769
      2 C         140.0274  146.2328  157.5440 C.ar    1  UNL1        0.0065
      3 C         140.7120  145.2988  158.4974 C.ar    1  UNL1        0.0016
      4 C         141.8814  144.4806  158.0362 C.ar    1  UNL1        0.0191
      5 C         142.3663  144.5963  156.6215 C.ar    1  UNL1        0.0509
      6 C         141.6817  145.5302  155.6680 C.ar    1  UNL1        0.0211
      7 N         143.5343  143.6699  156.4545 N.am    1  UNL1       -0.2803
      8 C         143.7712  142.9817  157.7661 C.2     1  UNL1        0.2507
      9 O         144.8416  141.9700  158.0503 O.2     1  UNL1       -0.2698
     10 C         142.7497  143.4827  158.7436 C.2     1  UNL1        0.0682
     11 C         142.6193  143.0601  160.1769 C.2     1  UNL1        0.0527
     12 H         144.0540  143.5369  155.6290 H       1  UNL1        0.1552
     13 C         141.5427  143.6510  161.0381 C.ar    1  UNL1        0.0136
     14 C         140.1675  143.0522  161.0363 C.ar    1  UNL1        0.0012
     15 C         139.0909  143.6432  161.8976 C.ar    1  UNL1        0.0000
     16 C         139.3896  144.8330  162.7608 C.ar    1  UNL1        0.0000
     17 C         140.7649  145.4319  162.7627 C.ar    1  UNL1        0.0000
     18 C         141.8414  144.8409  161.9014 C.ar    1  UNL1        0.0012
     19 C         139.8277  147.2824  155.1758 C.2     1  UNL1        0.3414
     20 O         138.6503  148.0912  155.6335 O.2     1  UNL1       -0.2449
     21 C         140.3825  148.7550  153.1085 C.3     1  UNL1        0.2560
     22 O         140.3205  147.4075  153.7646 O.3     1  UNL1       -0.4413
     23 N         143.5655  142.0466  160.7490 N.pl3   1  UNL1       -0.3124
     24 H         144.5335  142.1329  160.5917 H       1  UNL1        0.1522
     25 C         143.0369  140.9014  161.5609 C.ar    1  UNL1        0.0495
     26 C         142.4999  139.6804  160.8748 C.ar    1  UNL1        0.0144
     27 C         141.9713  138.5352  161.6867 C.ar    1  UNL1       -0.0017
     28 C         141.9797  138.6110  163.1848 C.ar    1  UNL1       -0.0067
     29 C         142.5167  139.8320  163.8708 C.ar    1  UNL1        0.0511
     30 C         143.0453  140.9772  163.0590 C.ar    1  UNL1        0.0292
     31 N         142.3970  139.6222  165.3513 N.am    1  UNL1       -0.2574
     32 C         142.8149  140.5927  166.4160 C.2     1  UNL1        0.2457
     33 O         143.4149  141.9131  166.0335 O.2     1  UNL1       -0.2730
     34 C         141.7860  138.2715  165.5801 C.3     1  UNL1        0.1029
     35 C         141.5281  137.6466  164.2411 C.3     1  UNL1        0.0495
     36 C         142.6328  140.2426  167.8632 C.3     1  UNL1        0.1591
     37 N         141.5087  140.8529  168.6467 N.3     1  UNL1       -0.2608
     38 C         141.5427  142.3114  168.9953 C.3     1  UNL1        0.1024
     39 C         140.4185  142.9217  169.7788 C.3     1  UNL1        0.1312
     40 C         140.4525  144.3802  170.1274 C.3     1  UNL1        0.0335
     41 O         139.2604  142.0734  170.2137 O.3     1  UNL1       -0.3559
     42 C         139.2264  140.6148  169.8651 C.3     1  UNL1        0.1312
     43 C         138.0683  139.7665  170.3000 C.3     1  UNL1        0.0335
     44 C         140.3505  140.0046  169.0816 C.3     1  UNL1        0.1024
@<TRIPOS>BOND
     1    21    22    1
     2    22    19    1
     3    19    20    2
     4    19     1    1
     5     1     2   ar
     6     2     3   ar
     7     3     4   ar
     8     4     5   ar
     9     5     6   ar
    10     5     7    1
    11     7     8   am
    12     8     9    2
    13     8    10    1
    14    10    11    2
    15    11    23    1
    16    23    25    1
    17    25    26   ar
    18    26    27   ar
    19    27    28   ar
    20    28    29   ar
    21    29    30   ar
    22    29    31    1
    23    31    32   am
    24    32    33    2
    25    32    36    1
    26    36    37    1
    27    37    38    1
    28    38    39    1
    29    39    40    1
    30    39    41    1
    31    41    42    1
    32    42    43    1
    33    42    44    1
    34    31    34    1
    35    34    35    1
    36    11    13    1
    37    13    14   ar
    38    14    15   ar
    39    15    16   ar
    40    16    17   ar
    41    17    18   ar
    42     6     1   ar
    43    30    25   ar
    44    44    37    1
    45    18    13   ar
    46    10     4    1
    47    35    28    1
    48     7    12    1
    49    23    24    1
