@<TRIPOS>MOLECULE
*****
 38 43 0 0 0
SMALL
GASTEIGER

@<TRIPOS>ATOM
      1 N         141.9660  138.0231  158.6994 N.ar    1  UNL1       -0.2264
      2 C         142.1843  137.6836  160.1441 C.ar    1  UNL1        0.1212
      3 C         141.1968  138.4657  160.9584 C.ar    1  UNL1        0.1260
      4 N         140.9450  138.5348  162.4354 N.ar    1  UNL1       -0.2248
      5 C         139.8645  139.4269  162.9711 C.ar    1  UNL1        0.1472
      6 N         139.0360  140.2498  162.0297 N.ar    1  UNL1       -0.2792
      7 C         139.2877  140.1806  160.5526 C.ar    1  UNL1        0.2829
      8 O         138.4591  141.0035  159.6112 O.2     1  UNL1       -0.2652
      9 C         140.3681  139.2886  160.0169 C.ar    1  UNL1        0.1762
     10 N         140.8436  139.0150  158.6208 N.ar    1  UNL1       -0.1586
     11 C         139.6127  139.4961  164.4483 C.ar    1  UNL1        0.0478
     12 C         138.4901  138.7081  165.0554 C.ar    1  UNL1        0.0058
     13 C         138.2383  138.7773  166.5325 C.ar    1  UNL1        0.0208
     14 C         139.1092  139.6345  167.4024 C.ar    1  UNL1        0.0984
     15 N         140.2318  140.4226  166.7953 N.ar    1  UNL1       -0.2480
     16 C         140.4836  140.3534  165.3182 C.ar    1  UNL1        0.0623
     17 C         141.6062  141.1415  164.7110 C.3     1  UNL1        0.0522
     18 C         143.6764  135.4303  156.2291 C.ar    1  UNL1        0.1402
     19 C         144.2735  136.3583  155.2131 C.ar    1  UNL1        0.0370
     20 C         144.1015  137.8412  155.3592 C.ar    1  UNL1        0.0047
     21 C         143.3323  138.3961  156.5213 C.ar    1  UNL1        0.0194
     22 C         142.7352  137.4681  157.5374 C.ar    1  UNL1        0.0859
     23 C         142.9072  135.9852  157.3913 C.ar    1  UNL1        0.0560
     24 C         143.2299  133.0183  157.0852 C.3     1  UNL1        0.2525
     25 O         143.8484  133.9474  156.0831 O.3     1  UNL1       -0.4714
     26 C         137.9555  141.1419  162.5654 C.3     1  UNL1        0.1119
     27 C         138.3140  142.4361  163.2333 C.3     1  UNL1        0.0388
     28 C         137.4882  142.9432  164.3783 C.3     1  UNL1        0.0048
     29 C         137.8467  144.2375  165.0463 C.3     1  UNL1        0.0174
     30 C         139.0310  145.0248  164.5693 C.3     1  UNL1        0.0722
     31 N         139.8569  144.5177  163.4243 N.3     1  UNL1       -0.2706
     32 C         139.4984  143.2235  162.7563 C.3     1  UNL1        0.0741
     33 C         141.0412  145.3051  162.9473 C.3     1  UNL1        0.1020
     34 C         142.3940  144.6603  162.8834 C.3     1  UNL1        0.1312
     35 C         143.2952  144.3845  164.0505 C.3     1  UNL1        0.0336
     36 C         144.5413  143.7318  163.5297 C.3     1  UNL1        0.0346
     37 C         144.4104  143.6043  162.0409 C.3     1  UNL1        0.1422
     38 O         143.0833  144.1781  161.6414 O.3     1  UNL1       -0.3548
@<TRIPOS>BOND
     1    24    25    1
     2    25    18    1
     3    18    19   ar
     4    19    20   ar
     5    20    21   ar
     6    21    22   ar
     7    22     1    1
     8     1     2   ar
     9     2     3   ar
    10     3     4   ar
    11     4     5   ar
    12     5    11    1
    13    11    12   ar
    14    12    13   ar
    15    13    14   ar
    16    14    15   ar
    17    15    16   ar
    18    16    17    1
    19     5     6   ar
    20     6    26    1
    21    27    26    1
    22    27    28    1
    23    28    29    1
    24    29    30    1
    25    30    31    1
    26    31    33    1
    27    34    33    1
    28    34    35    1
    29    35    36    1
    30    36    37    1
    31    37    38    1
    32    31    32    1
    33     6     7   ar
    34     7     8    2
    35     7     9   ar
    36     9    10   ar
    37    22    23   ar
    38    23    18   ar
    39    10     1   ar
    40     9     3   ar
    41    16    11   ar
    42    32    27    1
    43    38    34    1
@<TRIPOS>MOLECULE
*****
 38 43 0 0 0
SMALL
GASTEIGER

@<TRIPOS>ATOM
      1 N         140.5239  145.8810  157.9470 N.ar    1  UNL1       -0.2264
      2 C         141.8306  145.1959  158.2175 C.ar    1  UNL1        0.1212
      3 C         141.7490  144.5612  159.5742 C.ar    1  UNL1        0.1260
      4 N         142.7351  143.7544  160.3658 N.ar    1  UNL1       -0.2248
      5 C         142.3640  143.2406  161.7253 C.ar    1  UNL1        0.1472
      6 N         141.0070  143.5335  162.2932 N.ar    1  UNL1       -0.2792
      7 C         140.0209  144.3403  161.5016 C.ar    1  UNL1        0.2829
      8 O         138.6639  144.6332  162.0696 O.2     1  UNL1       -0.2652
      9 C         140.3919  144.8542  160.1421 C.ar    1  UNL1        0.1762
     10 N         139.6348  145.6699  159.1364 N.ar    1  UNL1       -0.1586
     11 C         143.3502  142.4337  162.5170 C.ar    1  UNL1        0.0478
     12 C         143.5289  140.9730  162.2267 C.ar    1  UNL1        0.0058
     13 C         144.5150  140.1662  163.0184 C.ar    1  UNL1        0.0208
     14 C         145.3224  140.8202  164.1002 C.ar    1  UNL1        0.0984
     15 N         145.1437  142.2809  164.3905 N.ar    1  UNL1       -0.2480
     16 C         144.1576  143.0877  163.5988 C.ar    1  UNL1        0.0623
     17 C         143.9789  144.5485  163.8891 C.3     1  UNL1        0.0522
     18 C         138.9103  148.6004  155.5488 C.ar    1  UNL1        0.1402
     19 C         139.4585  148.1685  154.2210 C.ar    1  UNL1        0.0370
     20 C         140.3618  146.9741  154.1352 C.ar    1  UNL1        0.0047
     21 C         140.7170  146.2117  155.3773 C.ar    1  UNL1        0.0194
     22 C         140.1688  146.6435  156.7050 C.ar    1  UNL1        0.0859
     23 C         139.2654  147.8379  156.7908 C.ar    1  UNL1        0.0560
     24 C         138.5866  151.1777  155.5984 C.3     1  UNL1        0.2525
     25 O         138.0069  149.7947  155.6345 O.3     1  UNL1       -0.4714
     26 C         140.6360  143.0196  163.6528 C.3     1  UNL1        0.1119
     27 C         139.9050  141.7170  163.7884 C.3     1  UNL1        0.0388
     28 C         139.0421  141.4626  164.9887 C.3     1  UNL1        0.0048
     29 C         138.3110  140.1598  165.1244 C.3     1  UNL1        0.0174
     30 C         138.4429  139.1114  164.0598 C.3     1  UNL1        0.0722
     31 N         139.3058  139.3658  162.8594 N.3     1  UNL1       -0.2706
     32 C         140.0368  140.6685  162.7238 C.3     1  UNL1        0.0741
     33 C         139.4377  138.3173  161.7948 C.3     1  UNL1        0.1020
     34 C         140.7247  138.1750  161.0377 C.3     1  UNL1        0.1312
     35 C         141.0124  138.7326  159.6752 C.3     1  UNL1        0.0336
     36 C         142.4155  138.3522  159.3055 C.3     1  UNL1        0.0346
     37 C         142.9950  137.5596  160.4395 C.3     1  UNL1        0.1422
     38 O         141.9500  137.4500  161.5100 O.3     1  UNL1       -0.3548
@<TRIPOS>BOND
     1    24    25    1
     2    25    18    1
     3    18    19   ar
     4    19    20   ar
     5    20    21   ar
     6    21    22   ar
     7    22     1    1
     8     1     2   ar
     9     2     3   ar
    10     3     4   ar
    11     4     5   ar
    12     5    11    1
    13    11    12   ar
    14    12    13   ar
    15    13    14   ar
    16    14    15   ar
    17    15    16   ar
    18    16    17    1
    19     5     6   ar
    20     6    26    1
    21    27    26    1
    22    27    28    1
    23    28    29    1
    24    29    30    1
    25    30    31    1
    26    31    33    1
    27    34    33    1
    28    34    35    1
    29    35    36    1
    30    36    37    1
    31    37    38    1
    32    31    32    1
    33     6     7   ar
    34     7     8    2
    35     7     9   ar
    36     9    10   ar
    37    22    23   ar
    38    23    18   ar
    39    10     1   ar
    40     9     3   ar
    41    16    11   ar
    42    32    27    1
    43    38    34    1
@<TRIPOS>MOLECULE
*****
 38 43 0 0 0
SMALL
GASTEIGER

@<TRIPOS>ATOM
      1 N         140.0530  145.0876  158.4320 N.ar    1  UNL1       -0.2264
      2 C         140.7175  145.4707  159.7210 C.ar    1  UNL1        0.1212
      3 C         140.3680  144.4351  160.7483 C.ar    1  UNL1        0.1260
      4 N         140.7378  144.2915  162.1948 N.ar    1  UNL1       -0.2248
      5 C         140.2269  143.1247  162.9873 C.ar    1  UNL1        0.1472
      6 N         139.3464  142.1017  162.3331 N.ar    1  UNL1       -0.2792
      7 C         138.9766  142.2453  160.8866 C.ar    1  UNL1        0.2829
      8 O         138.0960  141.2222  160.2324 O.2     1  UNL1       -0.2652
      9 C         139.4874  143.4120  160.0941 C.ar    1  UNL1        0.1762
     10 N         139.2927  143.8153  158.6625 N.ar    1  UNL1       -0.1586
     11 C         140.5967  142.9811  164.4339 C.ar    1  UNL1        0.0478
     12 C         141.8721  142.2907  164.8171 C.ar    1  UNL1        0.0058
     13 C         142.2418  142.1471  166.2637 C.ar    1  UNL1        0.0208
     14 C         141.3363  142.6940  167.3271 C.ar    1  UNL1        0.0984
     15 N         140.0610  143.3844  166.9440 N.ar    1  UNL1       -0.2480
     16 C         139.6912  143.5280  165.4974 C.ar    1  UNL1        0.0623
     17 C         138.4159  144.2185  165.1142 C.3     1  UNL1        0.0522
     18 C         139.3446  147.8012  155.6239 C.ar    1  UNL1        0.1402
     19 C         140.2972  147.3570  154.5537 C.ar    1  UNL1        0.0370
     20 C         141.1684  146.1564  154.7763 C.ar    1  UNL1        0.0047
     21 C         141.0869  145.4000  156.0690 C.ar    1  UNL1        0.0194
     22 C         140.1344  145.8441  157.1392 C.ar    1  UNL1        0.0859
     23 C         139.2632  147.0448  156.9167 C.ar    1  UNL1        0.0560
     24 C         138.4609  150.1158  156.4058 C.3     1  UNL1        0.2525
     25 O         138.4735  149.0018  155.4014 O.3     1  UNL1       -0.4714
     26 C         138.8356  140.9350  163.1256 C.3     1  UNL1        0.1119
     27 C         139.6532  139.6816  163.2269 C.3     1  UNL1        0.0388
     28 C         139.0252  138.4150  163.7282 C.3     1  UNL1        0.0048
     29 C         139.8428  137.1614  163.8296 C.3     1  UNL1        0.0174
     30 C         141.2885  137.1746  163.4296 C.3     1  UNL1        0.0722
     31 N         141.9165  138.4413  162.9283 N.3     1  UNL1       -0.2706
     32 C         141.0989  139.6947  162.8270 C.3     1  UNL1        0.0741
     33 C         143.3622  138.4544  162.5284 C.3     1  UNL1        0.1020
     34 C         144.2081  139.6600  162.8127 C.3     1  UNL1        0.1312
     35 C         144.9479  139.9372  164.0879 C.3     1  UNL1        0.0336
     36 C         145.6597  141.2486  163.9352 C.3     1  UNL1        0.0346
     37 C         145.3599  141.7821  162.5657 C.3     1  UNL1        0.1422
     38 O         144.4628  140.8003  161.8720 O.3     1  UNL1       -0.3548
@<TRIPOS>BOND
     1    24    25    1
     2    25    18    1
     3    18    19   ar
     4    19    20   ar
     5    20    21   ar
     6    21    22   ar
     7    22     1    1
     8     1     2   ar
     9     2     3   ar
    10     3     4   ar
    11     4     5   ar
    12     5    11    1
    13    11    12   ar
    14    12    13   ar
    15    13    14   ar
    16    14    15   ar
    17    15    16   ar
    18    16    17    1
    19     5     6   ar
    20     6    26    1
    21    27    26    1
    22    27    28    1
    23    28    29    1
    24    29    30    1
    25    30    31    1
    26    31    33    1
    27    34    33    1
    28    34    35    1
    29    35    36    1
    30    36    37    1
    31    37    38    1
    32    31    32    1
    33     6     7   ar
    34     7     8    2
    35     7     9   ar
    36     9    10   ar
    37    22    23   ar
    38    23    18   ar
    39    10     1   ar
    40     9     3   ar
    41    16    11   ar
    42    32    27    1
    43    38    34    1
@<TRIPOS>MOLECULE
*****
 38 43 0 0 0
SMALL
GASTEIGER

@<TRIPOS>ATOM
      1 N         140.5251  145.8603  157.9393 N.ar    1  UNL1       -0.2264
      2 C         141.8142  145.1423  158.2090 C.ar    1  UNL1        0.1212
      3 C         141.7325  144.5428  159.5815 C.ar    1  UNL1        0.1260
      4 N         142.7048  143.7254  160.3793 N.ar    1  UNL1       -0.2248
      5 C         142.3375  143.2556  161.7557 C.ar    1  UNL1        0.1472
      6 N         140.9980  143.6031  162.3342 N.ar    1  UNL1       -0.2792
      7 C         140.0257  144.4205  161.5365 C.ar    1  UNL1        0.2829
      8 O         138.6861  144.7681  162.1152 O.2     1  UNL1       -0.2652
      9 C         140.3929  144.8904  160.1602 C.ar    1  UNL1        0.1762
     10 N         139.6467  145.7046  159.1452 N.ar    1  UNL1       -0.1586
     11 C         143.3099  142.4381  162.5535 C.ar    1  UNL1        0.0478
     12 C         143.4348  140.9647  162.3017 C.ar    1  UNL1        0.0058
     13 C         144.4071  140.1473  163.0994 C.ar    1  UNL1        0.0208
     14 C         145.2545  140.8033  164.1489 C.ar    1  UNL1        0.0984
     15 N         145.1297  142.2767  164.4007 N.ar    1  UNL1       -0.2480
     16 C         144.1573  143.0941  163.6030 C.ar    1  UNL1        0.0623
     17 C         144.0324  144.5675  163.8548 C.3     1  UNL1        0.0522
     18 C         138.9393  148.5544  155.4946 C.ar    1  UNL1        0.1402
     19 C         139.4771  148.0900  154.1736 C.ar    1  UNL1        0.0370
     20 C         140.3642  146.8822  154.1078 C.ar    1  UNL1        0.0047
     21 C         140.7136  146.1391  155.3631 C.ar    1  UNL1        0.0194
     22 C         140.1758  146.6035  156.6841 C.ar    1  UNL1        0.0859
     23 C         139.2886  147.8112  156.7498 C.ar    1  UNL1        0.0560
     24 C         138.6398  151.1090  155.8615 C.3     1  UNL1        0.2525
     25 O         138.0521  149.7621  155.5603 O.3     1  UNL1       -0.4714
     26 C         140.6307  143.1332  163.7107 C.3     1  UNL1        0.1119
     27 C         139.9887  141.7908  163.8984 C.3     1  UNL1        0.0388
     28 C         139.6611  140.9426  162.7054 C.3     1  UNL1        0.0048
     29 C         139.0190  139.6000  162.8931 C.3     1  UNL1        0.0174
     30 C         138.7044  139.1056  164.2739 C.3     1  UNL1        0.0722
     31 N         139.0320  139.9538  165.4670 N.3     1  UNL1       -0.2706
     32 C         139.6741  141.2963  165.2793 C.3     1  UNL1        0.0741
     33 C         138.7174  139.4594  166.8479 C.3     1  UNL1        0.1020
     34 C         139.6095  139.8254  167.9968 C.3     1  UNL1        0.1312
     35 C         139.1598  140.3256  169.3376 C.3     1  UNL1        0.0336
     36 C         140.3802  140.5647  170.1763 C.3     1  UNL1        0.0346
     37 C         141.5842  140.2124  169.3539 C.3     1  UNL1        0.1422
     38 O         141.1078  139.7554  168.0070 O.3     1  UNL1       -0.3548
@<TRIPOS>BOND
     1    24    25    1
     2    25    18    1
     3    18    19   ar
     4    19    20   ar
     5    20    21   ar
     6    21    22   ar
     7    22     1    1
     8     1     2   ar
     9     2     3   ar
    10     3     4   ar
    11     4     5   ar
    12     5    11    1
    13    11    12   ar
    14    12    13   ar
    15    13    14   ar
    16    14    15   ar
    17    15    16   ar
    18    16    17    1
    19     5     6   ar
    20     6    26    1
    21    27    26    1
    22    27    28    1
    23    28    29    1
    24    29    30    1
    25    30    31    1
    26    31    33    1
    27    34    33    1
    28    34    35    1
    29    35    36    1
    30    36    37    1
    31    37    38    1
    32    31    32    1
    33     6     7   ar
    34     7     8    2
    35     7     9   ar
    36     9    10   ar
    37    22    23   ar
    38    23    18   ar
    39    10     1   ar
    40     9     3   ar
    41    16    11   ar
    42    32    27    1
    43    38    34    1
@<TRIPOS>MOLECULE
*****
 38 43 0 0 0
SMALL
GASTEIGER

@<TRIPOS>ATOM
      1 N         139.9684  145.4024  157.8275 N.ar    1  UNL1       -0.2264
      2 C         140.0993  143.9098  157.7557 C.ar    1  UNL1        0.1212
      3 C         140.1579  143.3817  159.1584 C.ar    1  UNL1        0.1260
      4 N         140.2852  141.9896  159.7022 N.ar    1  UNL1       -0.2248
      5 C         140.3179  141.7636  161.1848 C.ar    1  UNL1        0.1472
      6 N         140.2232  142.9297  162.1234 N.ar    1  UNL1       -0.2792
      7 C         140.0958  144.3218  161.5796 C.ar    1  UNL1        0.2829
      8 O         140.0011  145.4879  162.5184 O.2     1  UNL1       -0.2652
      9 C         140.0632  144.5478  160.0971 C.ar    1  UNL1        0.1762
     10 N         139.9461  145.7967  159.2746 N.ar    1  UNL1       -0.1586
     11 C         140.4453  140.3714  161.7286 C.ar    1  UNL1        0.0478
     12 C         141.8029  139.7901  161.9913 C.ar    1  UNL1        0.0058
     13 C         141.9302  138.3980  162.5351 C.ar    1  UNL1        0.0208
     14 C         140.6999  137.5871  162.8162 C.ar    1  UNL1        0.0984
     15 N         139.3423  138.1684  162.5535 N.ar    1  UNL1       -0.2480
     16 C         139.2150  139.5605  162.0097 C.ar    1  UNL1        0.0623
     17 C         137.8574  140.1418  161.7470 C.3     1  UNL1        0.0522
     18 C         138.9611  148.5211  155.5894 C.ar    1  UNL1        0.1402
     19 C         139.6913  148.2051  154.3177 C.ar    1  UNL1        0.0370
     20 C         140.5138  146.9549  154.2160 C.ar    1  UNL1        0.0047
     21 C         140.6061  146.0207  155.3860 C.ar    1  UNL1        0.0194
     22 C         139.8760  146.3366  156.6576 C.ar    1  UNL1        0.0859
     23 C         139.0535  147.5868  156.7593 C.ar    1  UNL1        0.0560
     24 C         138.7799  151.0583  156.1180 C.3     1  UNL1        0.2525
     25 O         138.1386  149.7713  155.6911 O.3     1  UNL1       -0.4714
     26 C         140.2558  142.7037  163.6060 C.3     1  UNL1        0.1119
     27 C         141.5538  142.8021  164.3513 C.3     1  UNL1        0.0388
     28 C         142.7898  143.2757  163.6456 C.3     1  UNL1        0.0048
     29 C         144.0879  143.3741  164.3909 C.3     1  UNL1        0.0174
     30 C         144.1499  142.9988  165.8418 C.3     1  UNL1        0.0722
     31 N         142.9138  142.5251  166.5475 N.3     1  UNL1       -0.2706
     32 C         141.6159  142.4268  165.8023 C.3     1  UNL1        0.0741
     33 C         142.9759  142.1498  167.9986 C.3     1  UNL1        0.1020
     34 C         141.7206  142.1161  168.8188 C.3     1  UNL1        0.1312
     35 C         141.1795  143.2421  169.6492 C.3     1  UNL1        0.0336
     36 C         139.9104  142.7725  170.2964 C.3     1  UNL1        0.0346
     37 C         139.6670  141.3563  169.8660 C.3     1  UNL1        0.1422
     38 O         140.7858  140.9506  168.9529 O.3     1  UNL1       -0.3548
@<TRIPOS>BOND
     1    24    25    1
     2    25    18    1
     3    18    19   ar
     4    19    20   ar
     5    20    21   ar
     6    21    22   ar
     7    22     1    1
     8     1     2   ar
     9     2     3   ar
    10     3     4   ar
    11     4     5   ar
    12     5    11    1
    13    11    12   ar
    14    12    13   ar
    15    13    14   ar
    16    14    15   ar
    17    15    16   ar
    18    16    17    1
    19     5     6   ar
    20     6    26    1
    21    27    26    1
    22    27    28    1
    23    28    29    1
    24    29    30    1
    25    30    31    1
    26    31    33    1
    27    34    33    1
    28    34    35    1
    29    35    36    1
    30    36    37    1
    31    37    38    1
    32    31    32    1
    33     6     7   ar
    34     7     8    2
    35     7     9   ar
    36     9    10   ar
    37    22    23   ar
    38    23    18   ar
    39    10     1   ar
    40     9     3   ar
    41    16    11   ar
    42    32    27    1
    43    38    34    1
@<TRIPOS>MOLECULE
*****
 38 43 0 0 0
SMALL
GASTEIGER

@<TRIPOS>ATOM
      1 N         140.9024  145.3806  157.0004 N.ar    1  UNL1       -0.2264
      2 C         141.7072  145.6640  158.2340 C.ar    1  UNL1        0.1212
      3 C         141.9120  144.3684  158.9616 C.ar    1  UNL1        0.1260
      4 N         142.6285  144.0357  160.2368 N.ar    1  UNL1       -0.2248
      5 C         142.6666  142.6189  160.7280 C.ar    1  UNL1        0.1472
      6 N         141.9883  141.5348  159.9441 N.ar    1  UNL1       -0.2792
      7 C         141.2718  141.8675  158.6690 C.ar    1  UNL1        0.2829
      8 O         140.5934  140.7833  157.8851 O.2     1  UNL1       -0.2652
      9 C         141.2336  143.2842  158.1777 C.ar    1  UNL1        0.1762
     10 N         140.6096  143.9098  156.9656 N.ar    1  UNL1       -0.1586
     11 C         143.3831  142.2862  162.0032 C.ar    1  UNL1        0.0478
     12 C         144.7959  141.7841  161.9606 C.ar    1  UNL1        0.0058
     13 C         145.5124  141.4515  163.2358 C.ar    1  UNL1        0.0208
     14 C         144.8160  141.6210  164.5535 C.ar    1  UNL1        0.0984
     15 N         143.4032  142.1231  164.5961 N.ar    1  UNL1       -0.2480
     16 C         142.6868  142.4557  163.3209 C.ar    1  UNL1        0.0623
     17 C         141.2739  142.9579  163.3635 C.3     1  UNL1        0.0522
     18 C         139.0637  148.4818  155.3416 C.ar    1  UNL1        0.1402
     19 C         139.5953  148.4106  153.9408 C.ar    1  UNL1        0.0370
     20 C         140.5626  147.3293  153.5598 C.ar    1  UNL1        0.0047
     21 C         140.9983  146.3193  154.5798 C.ar    1  UNL1        0.0194
     22 C         140.4667  146.3906  155.9806 C.ar    1  UNL1        0.0859
     23 C         139.4994  147.4718  156.3615 C.ar    1  UNL1        0.0560
     24 C         138.5261  150.9999  155.6888 C.3     1  UNL1        0.2525
     25 O         138.0964  149.5631  155.7226 O.3     1  UNL1       -0.4714
     26 C         142.0264  140.1180  160.4353 C.3     1  UNL1        0.1119
     27 C         140.8843  139.5722  161.2400 C.3     1  UNL1        0.0388
     28 C         140.9188  138.1530  161.7244 C.3     1  UNL1        0.0048
     29 C         139.7766  137.6071  162.5291 C.3     1  UNL1        0.0174
     30 C         138.6000  138.4805  162.8494 C.3     1  UNL1        0.0722
     31 N         138.5654  139.8998  162.3650 N.3     1  UNL1       -0.2706
     32 C         139.7075  140.4456  161.5603 C.3     1  UNL1        0.0741
     33 C         137.3887  140.7731  162.6854 C.3     1  UNL1        0.1020
     34 C         137.6031  142.2007  163.0925 C.3     1  UNL1        0.1312
     35 C         137.7059  142.7103  164.4997 C.3     1  UNL1        0.0336
     36 C         137.9187  144.1940  164.4410 C.3     1  UNL1        0.0346
     37 C         137.9475  144.6014  162.9976 C.3     1  UNL1        0.1422
     38 O         137.7525  143.3696  162.1643 O.3     1  UNL1       -0.3548
@<TRIPOS>BOND
     1    24    25    1
     2    25    18    1
     3    18    19   ar
     4    19    20   ar
     5    20    21   ar
     6    21    22   ar
     7    22     1    1
     8     1     2   ar
     9     2     3   ar
    10     3     4   ar
    11     4     5   ar
    12     5    11    1
    13    11    12   ar
    14    12    13   ar
    15    13    14   ar
    16    14    15   ar
    17    15    16   ar
    18    16    17    1
    19     5     6   ar
    20     6    26    1
    21    27    26    1
    22    27    28    1
    23    28    29    1
    24    29    30    1
    25    30    31    1
    26    31    33    1
    27    34    33    1
    28    34    35    1
    29    35    36    1
    30    36    37    1
    31    37    38    1
    32    31    32    1
    33     6     7   ar
    34     7     8    2
    35     7     9   ar
    36     9    10   ar
    37    22    23   ar
    38    23    18   ar
    39    10     1   ar
    40     9     3   ar
    41    16    11   ar
    42    32    27    1
    43    38    34    1
@<TRIPOS>MOLECULE
*****
 38 43 0 0 0
SMALL
GASTEIGER

@<TRIPOS>ATOM
      1 N         141.4160  136.9399  156.4155 N.ar    1  UNL1       -0.2264
      2 C         140.1384  137.4285  157.0312 C.ar    1  UNL1        0.1212
      3 C         140.4856  138.4665  158.0569 C.ar    1  UNL1        0.1260
      4 N         139.6357  139.2921  158.9767 N.ar    1  UNL1       -0.2248
      5 C         140.2781  140.2708  159.9147 C.ar    1  UNL1        0.1472
      6 N         141.7701  140.4236  159.9329 N.ar    1  UNL1       -0.2792
      7 C         142.6199  139.5980  159.0131 C.ar    1  UNL1        0.2829
      8 O         144.1120  139.7509  159.0314 O.2     1  UNL1       -0.2652
      9 C         141.9777  138.6194  158.0751 C.ar    1  UNL1        0.1762
     10 N         142.5527  137.6759  157.0606 N.ar    1  UNL1       -0.1586
     11 C         139.4282  141.0965  160.8346 C.ar    1  UNL1        0.0478
     12 C         139.0769  140.5787  162.1978 C.ar    1  UNL1        0.0058
     13 C         138.2271  141.4044  163.1176 C.ar    1  UNL1        0.0208
     14 C         137.7286  142.7479  162.6741 C.ar    1  UNL1        0.0984
     15 N         138.0799  143.2656  161.3109 N.ar    1  UNL1       -0.2480
     16 C         138.9297  142.4399  160.3911 C.ar    1  UNL1        0.0623
     17 C         139.2810  142.9577  159.0278 C.3     1  UNL1        0.0522
     18 C         142.0428  133.4524  154.6283 C.ar    1  UNL1        0.1402
     19 C         141.7755  133.8149  153.1975 C.ar    1  UNL1        0.0370
     20 C         141.3884  135.2191  152.8394 C.ar    1  UNL1        0.0047
     21 C         141.2686  136.2607  153.9121 C.ar    1  UNL1        0.0194
     22 C         141.5358  135.8982  155.3428 C.ar    1  UNL1        0.0859
     23 C         141.9230  134.4940  155.7010 C.ar    1  UNL1        0.0560
     24 C         142.6895  131.6837  156.4182 C.3     1  UNL1        0.2525
     25 O         142.4299  132.0481  154.9865 O.3     1  UNL1       -0.4714
     26 C         142.4124  141.4023  160.8710 C.3     1  UNL1        0.1119
     27 C         143.1869  140.9074  162.0563 C.3     1  UNL1        0.0388
     28 C         144.5946  141.3743  162.2806 C.3     1  UNL1        0.0048
     29 C         145.3692  140.8794  163.4660 C.3     1  UNL1        0.0174
     30 C         144.7360  139.9176  164.4271 C.3     1  UNL1        0.0722
     31 N         143.3282  139.4506  164.2028 N.3     1  UNL1       -0.2706
     32 C         142.5537  139.9454  163.0175 C.3     1  UNL1        0.0741
     33 C         142.6950  138.4886  165.1641 C.3     1  UNL1        0.1020
     34 C         141.2012  138.4182  165.2799 C.3     1  UNL1        0.1312
     35 C         140.3151  137.3889  164.6430 C.3     1  UNL1        0.0336
     36 C         138.8974  137.6991  165.0224 C.3     1  UNL1        0.0346
     37 C         138.9072  138.9201  165.8937 C.3     1  UNL1        0.1422
     38 O         140.3310  139.3645  166.0529 O.3     1  UNL1       -0.3548
@<TRIPOS>BOND
     1    24    25    1
     2    25    18    1
     3    18    19   ar
     4    19    20   ar
     5    20    21   ar
     6    21    22   ar
     7    22     1    1
     8     1     2   ar
     9     2     3   ar
    10     3     4   ar
    11     4     5   ar
    12     5    11    1
    13    11    12   ar
    14    12    13   ar
    15    13    14   ar
    16    14    15   ar
    17    15    16   ar
    18    16    17    1
    19     5     6   ar
    20     6    26    1
    21    27    26    1
    22    27    28    1
    23    28    29    1
    24    29    30    1
    25    30    31    1
    26    31    33    1
    27    34    33    1
    28    34    35    1
    29    35    36    1
    30    36    37    1
    31    37    38    1
    32    31    32    1
    33     6     7   ar
    34     7     8    2
    35     7     9   ar
    36     9    10   ar
    37    22    23   ar
    38    23    18   ar
    39    10     1   ar
    40     9     3   ar
    41    16    11   ar
    42    32    27    1
    43    38    34    1
@<TRIPOS>MOLECULE
*****
 38 43 0 0 0
SMALL
GASTEIGER

@<TRIPOS>ATOM
      1 N         141.7486  136.6058  156.3084 N.ar    1  UNL1       -0.2264
      2 C         142.9908  136.8356  157.1173 C.ar    1  UNL1        0.1212
      3 C         142.6277  137.6985  158.2892 C.ar    1  UNL1        0.1260
      4 N         143.4430  138.2471  159.4225 N.ar    1  UNL1       -0.2248
      5 C         142.7917  139.0992  160.4712 C.ar    1  UNL1        0.1472
      6 N         141.3253  139.4027  160.3867 N.ar    1  UNL1       -0.2792
      7 C         140.5099  138.8542  159.2535 C.ar    1  UNL1        0.2829
      8 O         139.0434  139.1577  159.1690 O.2     1  UNL1       -0.2652
      9 C         141.1611  138.0021  158.2047 C.ar    1  UNL1        0.1762
     10 N         140.6178  137.3267  156.9805 N.ar    1  UNL1       -0.1586
     11 C         143.6071  139.6479  161.6046 C.ar    1  UNL1        0.0478
     12 C         143.7682  138.8528  162.8663 C.ar    1  UNL1        0.0058
     13 C         144.5835  139.4014  163.9995 C.ar    1  UNL1        0.0208
     14 C         145.2378  140.7451  163.8710 C.ar    1  UNL1        0.0984
     15 N         145.0767  141.5401  162.6093 N.ar    1  UNL1       -0.2480
     16 C         144.2614  140.9915  161.4761 C.ar    1  UNL1        0.0623
     17 C         144.1004  141.7866  160.2144 C.3     1  UNL1        0.0522
     18 C         141.6053  133.4907  153.8538 C.ar    1  UNL1        0.1402
     19 C         141.4642  134.1798  152.5290 C.ar    1  UNL1        0.0370
     20 C         141.4180  135.6777  152.4640 C.ar    1  UNL1        0.0047
     21 C         141.5128  136.4863  153.7238 C.ar    1  UNL1        0.0194
     22 C         141.6538  135.7971  155.0487 C.ar    1  UNL1        0.0859
     23 C         141.7001  134.2993  155.1137 C.ar    1  UNL1        0.0560
     24 C         140.3987  131.2150  154.1935 C.3     1  UNL1        0.2525
     25 O         141.6515  131.9928  153.9188 O.3     1  UNL1       -0.4714
     26 C         140.6740  140.2549  161.4355 C.3     1  UNL1        0.1119
     27 C         140.0940  139.6196  162.6642 C.3     1  UNL1        0.0388
     28 C         139.5209  138.2352  162.5935 C.3     1  UNL1        0.0048
     29 C         138.9409  137.5998  163.8223 C.3     1  UNL1        0.0174
     30 C         138.9339  138.3490  165.1218 C.3     1  UNL1        0.0722
     31 N         139.5070  139.7335  165.1925 N.3     1  UNL1       -0.2706
     32 C         140.0870  140.3687  163.9638 C.3     1  UNL1        0.0741
     33 C         139.5000  140.4826  166.4921 C.3     1  UNL1        0.1020
     34 C         140.4915  140.1359  167.5629 C.3     1  UNL1        0.1312
     35 C         141.9471  139.8394  167.3542 C.3     1  UNL1        0.0336
     36 C         142.5567  139.5451  168.6927 C.3     1  UNL1        0.0346
     37 C         141.4780  139.6595  169.7287 C.3     1  UNL1        0.1422
     38 O         140.2016  140.0246  169.0305 O.3     1  UNL1       -0.3548
@<TRIPOS>BOND
     1    24    25    1
     2    25    18    1
     3    18    19   ar
     4    19    20   ar
     5    20    21   ar
     6    21    22   ar
     7    22     1    1
     8     1     2   ar
     9     2     3   ar
    10     3     4   ar
    11     4     5   ar
    12     5    11    1
    13    11    12   ar
    14    12    13   ar
    15    13    14   ar
    16    14    15   ar
    17    15    16   ar
    18    16    17    1
    19     5     6   ar
    20     6    26    1
    21    27    26    1
    22    27    28    1
    23    28    29    1
    24    29    30    1
    25    30    31    1
    26    31    33    1
    27    34    33    1
    28    34    35    1
    29    35    36    1
    30    36    37    1
    31    37    38    1
    32    31    32    1
    33     6     7   ar
    34     7     8    2
    35     7     9   ar
    36     9    10   ar
    37    22    23   ar
    38    23    18   ar
    39    10     1   ar
    40     9     3   ar
    41    16    11   ar
    42    32    27    1
    43    38    34    1
@<TRIPOS>MOLECULE
*****
 38 43 0 0 0
SMALL
GASTEIGER

@<TRIPOS>ATOM
      1 N         138.7311  142.4588  158.6719 N.ar    1  UNL1       -0.2264
      2 C         140.1890  142.4762  159.0244 C.ar    1  UNL1        0.1212
      3 C         140.3098  142.8175  160.4800 C.ar    1  UNL1        0.1260
      4 N         141.5007  142.9770  161.3780 N.ar    1  UNL1       -0.2248
      5 C         141.3084  143.3301  162.8232 C.ar    1  UNL1        0.1472
      6 N         139.9253  143.5237  163.3703 N.ar    1  UNL1       -0.2792
      7 C         138.7344  143.3642  162.4723 C.ar    1  UNL1        0.2829
      8 O         137.3512  143.5577  163.0195 O.2     1  UNL1       -0.2652
      9 C         138.9267  143.0111  161.0272 C.ar    1  UNL1        0.1762
     10 N         137.9509  142.7894  159.9097 N.ar    1  UNL1       -0.1586
     11 C         142.4993  143.4896  163.7212 C.ar    1  UNL1        0.0478
     12 C         143.0539  144.8560  163.9957 C.ar    1  UNL1        0.0058
     13 C         144.2448  145.0155  164.8937 C.ar    1  UNL1        0.0208
     14 C         144.8811  143.8086  165.5171 C.ar    1  UNL1        0.0984
     15 N         144.3265  142.4422  165.2425 N.ar    1  UNL1       -0.2480
     16 C         143.1356  142.2827  164.3446 C.ar    1  UNL1        0.0623
     17 C         142.5810  140.9164  164.0700 C.3     1  UNL1        0.0522
     18 C         136.5865  140.7537  155.8008 C.ar    1  UNL1        0.1402
     19 C         137.0015  141.5710  154.6135 C.ar    1  UNL1        0.0370
     20 C         137.9929  142.6844  154.7790 C.ar    1  UNL1        0.0047
     21 C         138.5695  142.9803  156.1319 C.ar    1  UNL1        0.0194
     22 C         138.1545  142.1629  157.3192 C.ar    1  UNL1        0.0859
     23 C         137.1630  141.0496  157.1537 C.ar    1  UNL1        0.0560
     24 C         134.1248  139.9378  155.6442 C.3     1  UNL1        0.2525
     25 O         135.5950  139.6403  155.6353 O.3     1  UNL1       -0.4714
     26 C         139.7329  143.8768  164.8154 C.3     1  UNL1        0.1119
     27 C         139.7993  142.8066  165.8642 C.3     1  UNL1        0.0388
     28 C         140.2634  143.1427  167.2505 C.3     1  UNL1        0.0048
     29 C         140.3298  142.0725  168.2994 C.3     1  UNL1        0.0174
     30 C         139.9322  140.6661  167.9621 C.3     1  UNL1        0.0722
     31 N         139.4681  140.3299  166.5757 N.3     1  UNL1       -0.2706
     32 C         139.4017  141.4001  165.5269 C.3     1  UNL1        0.0741
     33 C         139.0705  138.9234  166.2384 C.3     1  UNL1        0.1020
     34 C         139.5384  138.2984  164.9577 C.3     1  UNL1        0.1312
     35 C         140.8249  137.5530  164.7589 C.3     1  UNL1        0.0336
     36 C         140.8837  137.1030  163.3292 C.3     1  UNL1        0.0346
     37 C         139.6337  137.5702  162.6443 C.3     1  UNL1        0.1422
     38 O         138.8023  138.3090  163.6508 O.3     1  UNL1       -0.3548
@<TRIPOS>BOND
     1    24    25    1
     2    25    18    1
     3    18    19   ar
     4    19    20   ar
     5    20    21   ar
     6    21    22   ar
     7    22     1    1
     8     1     2   ar
     9     2     3   ar
    10     3     4   ar
    11     4     5   ar
    12     5    11    1
    13    11    12   ar
    14    12    13   ar
    15    13    14   ar
    16    14    15   ar
    17    15    16   ar
    18    16    17    1
    19     5     6   ar
    20     6    26    1
    21    27    26    1
    22    27    28    1
    23    28    29    1
    24    29    30    1
    25    30    31    1
    26    31    33    1
    27    34    33    1
    28    34    35    1
    29    35    36    1
    30    36    37    1
    31    37    38    1
    32    31    32    1
    33     6     7   ar
    34     7     8    2
    35     7     9   ar
    36     9    10   ar
    37    22    23   ar
    38    23    18   ar
    39    10     1   ar
    40     9     3   ar
    41    16    11   ar
    42    32    27    1
    43    38    34    1
