@<TRIPOS>MOLECULE
*****
 31 34 0 0 0
SMALL
GASTEIGER

@<TRIPOS>ATOM
      1 O         138.3921  142.5554  164.8287 O.2     1  UNL1       -0.2699
      2 C         139.6918  142.2783  164.1329 C.2     1  UNL1        0.2523
      3 N         140.7197  141.4019  164.7850 N.am    1  UNL1       -0.2949
      4 H         141.5727  141.2201  164.3283 H       1  UNL1        0.1503
      5 C         139.9636  142.8777  162.7850 C.ar    1  UNL1        0.1253
      6 C         141.3763  143.1241  162.3447 C.ar    1  UNL1        0.1098
      7 N         141.6480  143.7235  160.9968 N.ar    1  UNL1       -0.2233
      8 C         140.5071  144.0766  160.0892 C.ar    1  UNL1        0.1849
      9 N         139.0945  143.8302  160.5294 N.ar    1  UNL1       -0.1909
     10 C         138.8228  143.2308  161.8773 C.ar    1  UNL1        0.2289
     11 O         137.4101  142.9845  162.3176 O.3     1  UNL1       -0.4918
     12 H         136.6975  143.2050  161.7506 H       1  UNL1        0.2938
     13 C         140.7789  144.6760  158.7412 C.ar    1  UNL1        0.1386
     14 C         139.8678  144.3736  157.5885 C.ar    1  UNL1        0.0257
     15 C         140.1396  144.9731  156.2406 C.ar    1  UNL1        0.0242
     16 C         141.3224  145.8748  156.0454 C.ar    1  UNL1        0.1222
     17 N         142.2333  146.1771  157.1981 N.ar    1  UNL1       -0.1463
     18 N         141.9615  145.5777  158.5460 N.ar    1  UNL1       -0.1448
     19 C         140.4480  140.8025  166.1329 C.3     1  UNL1        0.1171
     20 C         139.5299  139.6228  166.2578 C.ar    1  UNL1       -0.0003
     21 C         138.4955  139.5890  167.3435 C.ar    1  UNL1       -0.0024
     22 C         137.5775  138.4094  167.4684 C.ar    1  UNL1       -0.0003
     23 C         137.6940  137.2634  166.5076 C.ar    1  UNL1       -0.0000
     24 C         138.7284  137.2971  165.4219 C.ar    1  UNL1       -0.0003
     25 C         139.6464  138.4768  165.2970 C.ar    1  UNL1       -0.0024
     26 C         141.0942  141.3827  167.3558 C.ar    1  UNL1       -0.0003
     27 C         140.4842  142.5742  168.0328 C.ar    1  UNL1       -0.0024
     28 C         141.1305  143.1545  169.2558 C.ar    1  UNL1       -0.0003
     29 C         142.3867  142.5432  169.8018 C.ar    1  UNL1       -0.0000
     30 C         142.9967  141.3517  169.1249 C.ar    1  UNL1       -0.0003
     31 C         142.3505  140.7715  167.9019 C.ar    1  UNL1       -0.0024
@<TRIPOS>BOND
     1     1     2    2
     2     2     3   am
     3     3    19    1
     4    19    20    1
     5    20    21   ar
     6    21    22   ar
     7    22    23   ar
     8    23    24   ar
     9    24    25   ar
    10    19    26    1
    11    26    27   ar
    12    27    28   ar
    13    28    29   ar
    14    29    30   ar
    15    30    31   ar
    16     2     5    1
    17     5     6   ar
    18     6     7   ar
    19     7     8   ar
    20     8    13    1
    21    13    14   ar
    22    14    15   ar
    23    15    16   ar
    24    16    17   ar
    25    17    18   ar
    26     8     9   ar
    27     9    10   ar
    28    10    11    1
    29    25    20   ar
    30    31    26   ar
    31    10     5   ar
    32    18    13   ar
    33     3     4    1
    34    11    12    1
@<TRIPOS>MOLECULE
*****
 31 34 0 0 0
SMALL
GASTEIGER

@<TRIPOS>ATOM
      1 O         138.3136  142.4481  164.7617 O.2     1  UNL1       -0.2699
      2 C         139.6493  142.2486  164.1090 C.2     1  UNL1        0.2523
      3 N         140.7075  141.4393  164.7983 N.am    1  UNL1       -0.2949
      4 H         141.5842  141.3083  164.3699 H       1  UNL1        0.1503
      5 C         139.9268  142.8583  162.7669 C.ar    1  UNL1        0.1253
      6 C         141.3382  143.1580  162.3566 C.ar    1  UNL1        0.1098
      7 N         141.6156  143.7677  161.0145 N.ar    1  UNL1       -0.2233
      8 C         140.4817  144.0778  160.0827 C.ar    1  UNL1        0.1849
      9 N         139.0704  143.7780  160.4930 N.ar    1  UNL1       -0.1909
     10 C         138.7930  143.1683  161.8351 C.ar    1  UNL1        0.2289
     11 O         137.3816  142.8686  162.2454 O.3     1  UNL1       -0.4918
     12 H         136.6733  143.0623  161.6633 H       1  UNL1        0.2938
     13 C         140.7592  144.6875  158.7406 C.ar    1  UNL1        0.1386
     14 C         139.8231  144.4377  157.5953 C.ar    1  UNL1        0.0257
     15 C         140.1006  145.0474  156.2532 C.ar    1  UNL1        0.0242
     16 C         141.3141  145.9069  156.0564 C.ar    1  UNL1        0.1222
     17 N         142.2500  146.1567  157.2016 N.ar    1  UNL1       -0.1463
     18 N         141.9726  145.5470  158.5437 N.ar    1  UNL1       -0.1448
     19 C         140.4301  140.8296  166.1404 C.3     1  UNL1        0.1171
     20 C         141.0575  141.4112  167.3726 C.ar    1  UNL1       -0.0003
     21 C         142.3131  140.8093  167.9304 C.ar    1  UNL1       -0.0024
     22 C         142.9405  141.3909  169.1625 C.ar    1  UNL1       -0.0003
     23 C         142.3122  142.5744  169.8368 C.ar    1  UNL1       -0.0000
     24 C         141.0566  143.1762  169.2790 C.ar    1  UNL1       -0.0003
     25 C         140.4292  142.5946  168.0469 C.ar    1  UNL1       -0.0024
     26 C         139.5253  139.6383  166.2504 C.ar    1  UNL1       -0.0003
     27 C         138.4814  139.5862  167.3263 C.ar    1  UNL1       -0.0024
     28 C         137.5765  138.3948  167.4363 C.ar    1  UNL1       -0.0003
     29 C         137.7156  137.2557  166.4703 C.ar    1  UNL1       -0.0000
     30 C         138.7595  137.3079  165.3944 C.ar    1  UNL1       -0.0003
     31 C         139.6643  138.4991  165.2845 C.ar    1  UNL1       -0.0024
@<TRIPOS>BOND
     1     1     2    2
     2     2     3   am
     3     3    19    1
     4    19    20    1
     5    20    21   ar
     6    21    22   ar
     7    22    23   ar
     8    23    24   ar
     9    24    25   ar
    10    19    26    1
    11    26    27   ar
    12    27    28   ar
    13    28    29   ar
    14    29    30   ar
    15    30    31   ar
    16     2     5    1
    17     5     6   ar
    18     6     7   ar
    19     7     8   ar
    20     8    13    1
    21    13    14   ar
    22    14    15   ar
    23    15    16   ar
    24    16    17   ar
    25    17    18   ar
    26     8     9   ar
    27     9    10   ar
    28    10    11    1
    29    25    20   ar
    30    31    26   ar
    31    10     5   ar
    32    18    13   ar
    33     3     4    1
    34    11    12    1
@<TRIPOS>MOLECULE
*****
 31 34 0 0 0
SMALL
GASTEIGER

@<TRIPOS>ATOM
      1 O         142.6320  141.4545  162.5096 O.2     1  UNL1       -0.2699
      2 C         141.7631  140.2602  162.2473 C.2     1  UNL1        0.2523
      3 N         140.7456  139.8352  163.2641 N.am    1  UNL1       -0.2949
      4 H         140.1753  139.0513  163.0919 H       1  UNL1        0.1503
      5 C         141.9120  139.4908  160.9683 C.ar    1  UNL1        0.1253
      6 C         140.7048  139.1863  160.1314 C.ar    1  UNL1        0.1098
      7 N         140.8537  138.4169  158.8524 N.ar    1  UNL1       -0.2233
      8 C         142.2096  137.9522  158.4101 C.ar    1  UNL1        0.1849
      9 N         143.4166  138.2568  159.2469 N.ar    1  UNL1       -0.1909
     10 C         143.2678  139.0261  160.5260 C.ar    1  UNL1        0.2289
     11 O         144.4749  139.3307  161.3628 O.3     1  UNL1       -0.4918
     12 H         145.3219  139.0403  161.0865 H       1  UNL1        0.2938
     13 C         142.3584  137.1829  157.1311 C.ar    1  UNL1        0.1386
     14 C         141.1406  136.7632  156.3623 C.ar    1  UNL1        0.0257
     15 C         141.2895  135.9939  155.0832 C.ar    1  UNL1        0.0242
     16 C         142.6560  135.6442  154.5729 C.ar    1  UNL1        0.1222
     17 N         143.8737  136.0639  155.3417 N.ar    1  UNL1       -0.1463
     18 N         143.7249  136.8332  156.6208 N.ar    1  UNL1       -0.1448
     19 C         140.5967  140.6045  164.5431 C.3     1  UNL1        0.1171
     20 C         139.7801  141.8625  164.5710 C.ar    1  UNL1       -0.0003
     21 C         140.4442  143.1821  164.8307 C.ar    1  UNL1       -0.0024
     22 C         139.6276  144.4400  164.8586 C.ar    1  UNL1       -0.0003
     23 C         138.1469  144.3782  164.6268 C.ar    1  UNL1       -0.0000
     24 C         137.4828  143.0586  164.3671 C.ar    1  UNL1       -0.0003
     25 C         138.2994  141.8007  164.3392 C.ar    1  UNL1       -0.0024
     26 C         141.2645  140.1159  165.7943 C.ar    1  UNL1       -0.0003
     27 C         142.5442  139.3383  165.7068 C.ar    1  UNL1       -0.0024
     28 C         143.2120  138.8497  166.9580 C.ar    1  UNL1       -0.0003
     29 C         142.6000  139.1387  168.2966 C.ar    1  UNL1       -0.0000
     30 C         141.3203  139.9163  168.3841 C.ar    1  UNL1       -0.0003
     31 C         140.6525  140.4049  167.1330 C.ar    1  UNL1       -0.0024
@<TRIPOS>BOND
     1     1     2    2
     2     2     3   am
     3     3    19    1
     4    19    20    1
     5    20    21   ar
     6    21    22   ar
     7    22    23   ar
     8    23    24   ar
     9    24    25   ar
    10    19    26    1
    11    26    27   ar
    12    27    28   ar
    13    28    29   ar
    14    29    30   ar
    15    30    31   ar
    16     2     5    1
    17     5     6   ar
    18     6     7   ar
    19     7     8   ar
    20     8    13    1
    21    13    14   ar
    22    14    15   ar
    23    15    16   ar
    24    16    17   ar
    25    17    18   ar
    26     8     9   ar
    27     9    10   ar
    28    10    11    1
    29    25    20   ar
    30    31    26   ar
    31    10     5   ar
    32    18    13   ar
    33     3     4    1
    34    11    12    1
@<TRIPOS>MOLECULE
*****
 31 34 0 0 0
SMALL
GASTEIGER

@<TRIPOS>ATOM
      1 O         140.9347  140.2111  161.8179 O.2     1  UNL1       -0.2699
      2 C         142.1564  141.0816  161.8138 C.2     1  UNL1        0.2523
      3 N         142.5371  141.8455  163.0473 N.am    1  UNL1       -0.2949
      4 H         143.3388  142.4168  163.0446 H       1  UNL1        0.1503
      5 C         142.9973  141.1880  160.5763 C.ar    1  UNL1        0.1253
      6 C         143.3099  139.9597  159.7740 C.ar    1  UNL1        0.1098
      7 N         144.1509  140.0662  158.5364 N.ar    1  UNL1       -0.2233
      8 C         144.6792  141.4009  158.1012 C.ar    1  UNL1        0.1849
      9 N         144.3666  142.6292  158.9035 N.ar    1  UNL1       -0.1909
     10 C         143.5257  142.5227  160.1411 C.ar    1  UNL1        0.2289
     11 O         143.2131  143.7510  160.9434 O.3     1  UNL1       -0.4918
     12 H         143.5432  144.5847  160.6715 H       1  UNL1        0.2938
     13 C         145.5202  141.5074  156.8637 C.ar    1  UNL1        0.1386
     14 C         146.6937  142.4412  156.8324 C.ar    1  UNL1        0.0257
     15 C         147.5347  142.5476  155.5949 C.ar    1  UNL1        0.0242
     16 C         147.2020  141.7203  154.3886 C.ar    1  UNL1        0.1222
     17 N         146.0285  140.7866  154.4200 N.ar    1  UNL1       -0.1463
     18 N         145.1876  140.6801  155.6575 N.ar    1  UNL1       -0.1448
     19 C         141.6961  141.7391  164.2848 C.3     1  UNL1        0.1171
     20 C         142.1198  140.8345  165.4040 C.ar    1  UNL1       -0.0003
     21 C         141.8375  141.2183  166.8263 C.ar    1  UNL1       -0.0024
     22 C         142.2612  140.3139  167.9453 C.ar    1  UNL1       -0.0003
     23 C         142.9671  139.0256  167.6421 C.ar    1  UNL1       -0.0000
     24 C         143.2494  138.6418  166.2198 C.ar    1  UNL1       -0.0003
     25 C         142.8258  139.5463  165.1007 C.ar    1  UNL1       -0.0024
     26 C         140.4316  142.5370  164.4032 C.ar    1  UNL1       -0.0003
     27 C         140.4978  144.0230  164.5970 C.ar    1  UNL1       -0.0024
     28 C         139.2331  144.8210  164.7155 C.ar    1  UNL1       -0.0003
     29 C         137.9024  144.1330  164.6400 C.ar    1  UNL1       -0.0000
     30 C         137.8362  142.6471  164.4462 C.ar    1  UNL1       -0.0003
     31 C         139.1007  141.8491  164.3278 C.ar    1  UNL1       -0.0024
@<TRIPOS>BOND
     1     1     2    2
     2     2     3   am
     3     3    19    1
     4    19    20    1
     5    20    21   ar
     6    21    22   ar
     7    22    23   ar
     8    23    24   ar
     9    24    25   ar
    10    19    26    1
    11    26    27   ar
    12    27    28   ar
    13    28    29   ar
    14    29    30   ar
    15    30    31   ar
    16     2     5    1
    17     5     6   ar
    18     6     7   ar
    19     7     8   ar
    20     8    13    1
    21    13    14   ar
    22    14    15   ar
    23    15    16   ar
    24    16    17   ar
    25    17    18   ar
    26     8     9   ar
    27     9    10   ar
    28    10    11    1
    29    25    20   ar
    30    31    26   ar
    31    10     5   ar
    32    18    13   ar
    33     3     4    1
    34    11    12    1
@<TRIPOS>MOLECULE
*****
 31 34 0 0 0
SMALL
GASTEIGER

@<TRIPOS>ATOM
      1 O         142.5366  141.5512  162.5262 O.2     1  UNL1       -0.2699
      2 C         141.7028  140.3296  162.2761 C.2     1  UNL1        0.2523
      3 N         140.7143  139.8722  163.3074 N.am    1  UNL1       -0.2949
      4 H         140.1671  139.0705  163.1432 H       1  UNL1        0.1503
      5 C         141.8575  139.5655  160.9946 C.ar    1  UNL1        0.1253
      6 C         140.6503  139.2358  160.1675 C.ar    1  UNL1        0.1098
      7 N         140.8050  138.4717  158.8861 N.ar    1  UNL1       -0.2233
      8 C         142.1670  138.0372  158.4317 C.ar    1  UNL1        0.1849
      9 N         143.3741  138.3669  159.2587 N.ar    1  UNL1       -0.1909
     10 C         143.2194  139.1310  160.5402 C.ar    1  UNL1        0.2289
     11 O         144.4266  139.4607  161.3673 O.3     1  UNL1       -0.4918
     12 H         145.2774  139.1893  161.0834 H       1  UNL1        0.2938
     13 C         142.3217  137.2730  157.1502 C.ar    1  UNL1        0.1386
     14 C         141.1072  136.8457  156.3805 C.ar    1  UNL1        0.0257
     15 C         141.2619  136.0815  155.0991 C.ar    1  UNL1        0.0242
     16 C         142.6312  135.7448  154.5873 C.ar    1  UNL1        0.1222
     17 N         143.8456  136.1722  155.3570 N.ar    1  UNL1       -0.1463
     18 N         143.6909  136.9363  156.6384 N.ar    1  UNL1       -0.1448
     19 C         140.5596  140.6364  164.5888 C.3     1  UNL1        0.1171
     20 C         141.2424  140.1565  165.8353 C.ar    1  UNL1       -0.0003
     21 C         142.5115  139.3630  165.7372 C.ar    1  UNL1       -0.0024
     22 C         143.1942  138.8833  166.9836 C.ar    1  UNL1       -0.0003
     23 C         142.6079  139.1970  168.3281 C.ar    1  UNL1       -0.0000
     24 C         141.3388  139.9905  168.4263 C.ar    1  UNL1       -0.0003
     25 C         140.6560  140.4703  167.1798 C.ar    1  UNL1       -0.0024
     26 C         139.7221  141.8803  164.6239 C.ar    1  UNL1       -0.0003
     27 C         138.2491  141.8006  164.3518 C.ar    1  UNL1       -0.0024
     28 C         137.4116  143.0446  164.3869 C.ar    1  UNL1       -0.0003
     29 C         138.0471  144.3682  164.6940 C.ar    1  UNL1       -0.0000
     30 C         139.5201  144.4478  164.9660 C.ar    1  UNL1       -0.0003
     31 C         140.3576  143.2039  164.9310 C.ar    1  UNL1       -0.0024
@<TRIPOS>BOND
     1     1     2    2
     2     2     3   am
     3     3    19    1
     4    19    20    1
     5    20    21   ar
     6    21    22   ar
     7    22    23   ar
     8    23    24   ar
     9    24    25   ar
    10    19    26    1
    11    26    27   ar
    12    27    28   ar
    13    28    29   ar
    14    29    30   ar
    15    30    31   ar
    16     2     5    1
    17     5     6   ar
    18     6     7   ar
    19     7     8   ar
    20     8    13    1
    21    13    14   ar
    22    14    15   ar
    23    15    16   ar
    24    16    17   ar
    25    17    18   ar
    26     8     9   ar
    27     9    10   ar
    28    10    11    1
    29    25    20   ar
    30    31    26   ar
    31    10     5   ar
    32    18    13   ar
    33     3     4    1
    34    11    12    1
@<TRIPOS>MOLECULE
*****
 31 34 0 0 0
SMALL
GASTEIGER

@<TRIPOS>ATOM
      1 O         141.0003  140.1241  161.8004 O.2     1  UNL1       -0.2699
      2 C         142.1787  141.0518  161.7742 C.2     1  UNL1        0.2523
      3 N         142.5229  141.8617  162.9889 N.am    1  UNL1       -0.2949
      4 H         143.2963  142.4706  162.9716 H       1  UNL1        0.1503
      5 C         143.0130  141.1696  160.5331 C.ar    1  UNL1        0.1253
      6 C         143.3462  139.9444  159.7343 C.ar    1  UNL1        0.1098
      7 N         144.1804  140.0622  158.4933 N.ar    1  UNL1       -0.2233
      8 C         144.6815  141.4052  158.0511 C.ar    1  UNL1        0.1849
      9 N         144.3482  142.6303  158.8498 N.ar    1  UNL1       -0.1909
     10 C         143.5140  142.5125  160.0909 C.ar    1  UNL1        0.2289
     11 O         143.1808  143.7377  160.8897 O.3     1  UNL1       -0.4918
     12 H         143.4937  144.5765  160.6134 H       1  UNL1        0.2938
     13 C         145.5157  141.5230  156.8100 C.ar    1  UNL1        0.1386
     14 C         146.7233  142.4128  156.7998 C.ar    1  UNL1        0.0257
     15 C         147.5576  142.5306  155.5588 C.ar    1  UNL1        0.0242
     16 C         147.1842  141.7586  154.3280 C.ar    1  UNL1        0.1222
     17 N         145.9766  140.8689  154.3383 N.ar    1  UNL1       -0.1463
     18 N         145.1424  140.7511  155.5793 N.ar    1  UNL1       -0.1448
     19 C         141.6886  141.7439  164.2299 C.3     1  UNL1        0.1171
     20 C         140.4220  142.5368  164.3602 C.ar    1  UNL1       -0.0003
     21 C         140.4845  144.0134  164.6165 C.ar    1  UNL1       -0.0024
     22 C         139.2179  144.8063  164.7468 C.ar    1  UNL1       -0.0003
     23 C         137.8887  144.1225  164.6208 C.ar    1  UNL1       -0.0000
     24 C         137.8262  142.6459  164.3645 C.ar    1  UNL1       -0.0003
     25 C         139.0928  141.8531  164.2342 C.ar    1  UNL1       -0.0024
     26 C         142.1210  140.8333  165.3406 C.ar    1  UNL1       -0.0003
     27 C         141.8210  141.1933  166.7655 C.ar    1  UNL1       -0.0024
     28 C         142.2534  140.2826  167.8762 C.ar    1  UNL1       -0.0003
     29 C         142.9857  139.0118  167.5620 C.ar    1  UNL1       -0.0000
     30 C         143.2858  138.6518  166.1372 C.ar    1  UNL1       -0.0003
     31 C         142.8534  139.5624  165.0264 C.ar    1  UNL1       -0.0024
@<TRIPOS>BOND
     1     1     2    2
     2     2     3   am
     3     3    19    1
     4    19    20    1
     5    20    21   ar
     6    21    22   ar
     7    22    23   ar
     8    23    24   ar
     9    24    25   ar
    10    19    26    1
    11    26    27   ar
    12    27    28   ar
    13    28    29   ar
    14    29    30   ar
    15    30    31   ar
    16     2     5    1
    17     5     6   ar
    18     6     7   ar
    19     7     8   ar
    20     8    13    1
    21    13    14   ar
    22    14    15   ar
    23    15    16   ar
    24    16    17   ar
    25    17    18   ar
    26     8     9   ar
    27     9    10   ar
    28    10    11    1
    29    25    20   ar
    30    31    26   ar
    31    10     5   ar
    32    18    13   ar
    33     3     4    1
    34    11    12    1
@<TRIPOS>MOLECULE
*****
 31 34 0 0 0
SMALL
GASTEIGER

@<TRIPOS>ATOM
      1 O         139.4813  138.8307  163.4942 O.2     1  UNL1       -0.2699
      2 C         140.7065  139.4707  162.9117 C.2     1  UNL1        0.2523
      3 N         141.3569  140.6244  163.6159 N.am    1  UNL1       -0.2949
      4 H         142.1610  141.0444  163.2336 H       1  UNL1        0.1503
      5 C         141.2813  138.9570  161.6250 C.ar    1  UNL1        0.1253
      6 C         142.7164  138.5245  161.5644 C.ar    1  UNL1        0.1098
      7 N         143.2912  138.0107  160.2776 N.ar    1  UNL1       -0.2233
      8 C         142.4309  137.9295  159.0515 C.ar    1  UNL1        0.1849
      9 N         140.9959  138.3620  159.1121 N.ar    1  UNL1       -0.1909
     10 C         140.4211  138.8758  160.3988 C.ar    1  UNL1        0.2289
     11 O         138.9861  139.3083  160.4594 O.3     1  UNL1       -0.4918
     12 H         138.4487  139.2575  159.6934 H       1  UNL1        0.2938
     13 C         143.0057  137.4158  157.7647 C.ar    1  UNL1        0.1386
     14 C         142.8135  135.9792  157.3781 C.ar    1  UNL1        0.0257
     15 C         143.3883  135.4655  156.0914 C.ar    1  UNL1        0.0242
     16 C         144.1553  136.3884  155.1912 C.ar    1  UNL1        0.1222
     17 N         144.3474  137.8249  155.5779 N.ar    1  UNL1       -0.1463
     18 N         143.7726  138.3386  156.8646 N.ar    1  UNL1       -0.1448
     19 C         140.7821  141.1381  164.9027 C.3     1  UNL1        0.1171
     20 C         141.2185  140.5440  166.2091 C.ar    1  UNL1       -0.0003
     21 C         142.4903  139.7524  166.2854 C.ar    1  UNL1       -0.0024
     22 C         142.9266  139.1584  167.5918 C.ar    1  UNL1       -0.0003
     23 C         142.0912  139.3560  168.8219 C.ar    1  UNL1       -0.0000
     24 C         140.8195  140.1476  168.7455 C.ar    1  UNL1       -0.0003
     25 C         140.3831  140.7416  167.4392 C.ar    1  UNL1       -0.0024
     26 C         139.7709  142.2458  164.8830 C.ar    1  UNL1       -0.0003
     27 C         140.1756  143.6377  165.2690 C.ar    1  UNL1       -0.0024
     28 C         139.1643  144.7454  165.2493 C.ar    1  UNL1       -0.0003
     29 C         137.7485  144.4613  164.8437 C.ar    1  UNL1       -0.0000
     30 C         137.3438  143.0694  164.4578 C.ar    1  UNL1       -0.0003
     31 C         138.3550  141.9617  164.4774 C.ar    1  UNL1       -0.0024
@<TRIPOS>BOND
     1     1     2    2
     2     2     3   am
     3     3    19    1
     4    19    20    1
     5    20    21   ar
     6    21    22   ar
     7    22    23   ar
     8    23    24   ar
     9    24    25   ar
    10    19    26    1
    11    26    27   ar
    12    27    28   ar
    13    28    29   ar
    14    29    30   ar
    15    30    31   ar
    16     2     5    1
    17     5     6   ar
    18     6     7   ar
    19     7     8   ar
    20     8    13    1
    21    13    14   ar
    22    14    15   ar
    23    15    16   ar
    24    16    17   ar
    25    17    18   ar
    26     8     9   ar
    27     9    10   ar
    28    10    11    1
    29    25    20   ar
    30    31    26   ar
    31    10     5   ar
    32    18    13   ar
    33     3     4    1
    34    11    12    1
@<TRIPOS>MOLECULE
*****
 31 34 0 0 0
SMALL
GASTEIGER

@<TRIPOS>ATOM
      1 O         139.6110  142.6719  162.8554 O.2     1  UNL1       -0.2699
      2 C         139.6557  141.4468  161.9910 C.2     1  UNL1        0.2523
      3 N         140.3752  140.2194  162.4661 N.am    1  UNL1       -0.2949
      4 H         140.4045  139.4154  161.8988 H       1  UNL1        0.1503
      5 C         138.9809  141.4492  160.6513 C.ar    1  UNL1        0.1253
      6 C         138.4809  140.1639  160.0611 C.ar    1  UNL1        0.1098
      7 N         137.8061  140.1663  158.7215 N.ar    1  UNL1       -0.2233
      8 C         137.6312  141.4539  157.9721 C.ar    1  UNL1        0.1849
      9 N         138.1312  142.7391  158.5623 N.ar    1  UNL1       -0.1909
     10 C         138.8060  142.7367  159.9019 C.ar    1  UNL1        0.2289
     11 O         139.3060  144.0219  160.4922 O.3     1  UNL1       -0.4918
     12 H         139.1967  144.8262  160.0240 H       1  UNL1        0.2938
     13 C         136.9564  141.4563  156.6325 C.ar    1  UNL1        0.1386
     14 C         136.8467  142.7316  155.8502 C.ar    1  UNL1        0.0257
     15 C         136.1718  142.7340  154.5106 C.ar    1  UNL1        0.0242
     16 C         135.6068  141.4611  153.9532 C.ar    1  UNL1        0.1222
     17 N         135.7165  140.1860  154.7354 N.ar    1  UNL1       -0.1463
     18 N         136.3913  140.1836  156.0750 N.ar    1  UNL1       -0.1448
     19 C         141.0500  140.2170  163.8058 C.3     1  UNL1        0.1171
     20 C         142.5239  140.4782  163.9036 C.ar    1  UNL1       -0.0003
     21 C         143.4814  139.3316  164.0393 C.ar    1  UNL1       -0.0024
     22 C         144.9552  139.5928  164.1371 C.ar    1  UNL1       -0.0003
     23 C         145.4715  141.0007  164.0991 C.ar    1  UNL1       -0.0000
     24 C         144.5140  142.1473  163.9634 C.ar    1  UNL1       -0.0003
     25 C         143.0402  141.8860  163.8656 C.ar    1  UNL1       -0.0024
     26 C         140.2510  139.9535  165.0476 C.ar    1  UNL1       -0.0003
     27 C         138.8893  139.3326  164.9456 C.ar    1  UNL1       -0.0024
     28 C         138.0904  139.0691  166.1875 C.ar    1  UNL1       -0.0003
     29 C         138.6530  139.4263  167.5313 C.ar    1  UNL1       -0.0000
     30 C         140.0147  140.0472  167.6332 C.ar    1  UNL1       -0.0003
     31 C         140.8137  140.3108  166.3914 C.ar    1  UNL1       -0.0024
@<TRIPOS>BOND
     1     1     2    2
     2     2     3   am
     3     3    19    1
     4    19    20    1
     5    20    21   ar
     6    21    22   ar
     7    22    23   ar
     8    23    24   ar
     9    24    25   ar
    10    19    26    1
    11    26    27   ar
    12    27    28   ar
    13    28    29   ar
    14    29    30   ar
    15    30    31   ar
    16     2     5    1
    17     5     6   ar
    18     6     7   ar
    19     7     8   ar
    20     8    13    1
    21    13    14   ar
    22    14    15   ar
    23    15    16   ar
    24    16    17   ar
    25    17    18   ar
    26     8     9   ar
    27     9    10   ar
    28    10    11    1
    29    25    20   ar
    30    31    26   ar
    31    10     5   ar
    32    18    13   ar
    33     3     4    1
    34    11    12    1
@<TRIPOS>MOLECULE
*****
 31 34 0 0 0
SMALL
GASTEIGER

@<TRIPOS>ATOM
      1 O         139.4769  138.8587  163.4878 O.2     1  UNL1       -0.2699
      2 C         140.7029  139.5004  162.9087 C.2     1  UNL1        0.2523
      3 N         141.3551  140.6490  163.6195 N.am    1  UNL1       -0.2949
      4 H         142.1597  141.0702  163.2395 H       1  UNL1        0.1503
      5 C         141.2767  138.9933  161.6189 C.ar    1  UNL1        0.1253
      6 C         142.7269  138.6180  161.5394 C.ar    1  UNL1        0.1098
      7 N         143.3007  138.1109  160.2496 N.ar    1  UNL1       -0.2233
      8 C         142.4244  137.9792  159.0393 C.ar    1  UNL1        0.1849
      9 N         140.9743  138.3545  159.1188 N.ar    1  UNL1       -0.1909
     10 C         140.4005  138.8616  160.4087 C.ar    1  UNL1        0.2289
     11 O         138.9503  139.2369  160.4882 O.3     1  UNL1       -0.4918
     12 H         138.4030  139.1546  159.7321 H       1  UNL1        0.2938
     13 C         142.9982  137.4721  157.7495 C.ar    1  UNL1        0.1386
     14 C         142.7781  136.0459  157.3400 C.ar    1  UNL1        0.0257
     15 C         143.3520  135.5389  156.0502 C.ar    1  UNL1        0.0242
     16 C         144.1459  136.4580  155.1699 C.ar    1  UNL1        0.1222
     17 N         144.3659  137.8841  155.5793 N.ar    1  UNL1       -0.1463
     18 N         143.7921  138.3912  156.8691 N.ar    1  UNL1       -0.1448
     19 C         140.7812  141.1561  164.9093 C.3     1  UNL1        0.1171
     20 C         139.7685  142.2626  164.8960 C.ar    1  UNL1       -0.0003
     21 C         138.3521  141.9782  164.4926 C.ar    1  UNL1       -0.0024
     22 C         137.3395  143.0846  164.4793 C.ar    1  UNL1       -0.0003
     23 C         137.7433  144.4756  164.8693 C.ar    1  UNL1       -0.0000
     24 C         139.1597  144.7601  165.2728 C.ar    1  UNL1       -0.0003
     25 C         140.1723  143.6536  165.2861 C.ar    1  UNL1       -0.0024
     26 C         141.2201  140.5567  166.2124 C.ar    1  UNL1       -0.0003
     27 C         140.3812  140.7396  167.4424 C.ar    1  UNL1       -0.0024
     28 C         140.8201  140.1402  168.7455 C.ar    1  UNL1       -0.0003
     29 C         142.0978  139.3579  168.8187 C.ar    1  UNL1       -0.0000
     30 C         142.9367  139.1750  167.5887 C.ar    1  UNL1       -0.0003
     31 C         142.4978  139.7744  166.2856 C.ar    1  UNL1       -0.0024
@<TRIPOS>BOND
     1     1     2    2
     2     2     3   am
     3     3    19    1
     4    19    20    1
     5    20    21   ar
     6    21    22   ar
     7    22    23   ar
     8    23    24   ar
     9    24    25   ar
    10    19    26    1
    11    26    27   ar
    12    27    28   ar
    13    28    29   ar
    14    29    30   ar
    15    30    31   ar
    16     2     5    1
    17     5     6   ar
    18     6     7   ar
    19     7     8   ar
    20     8    13    1
    21    13    14   ar
    22    14    15   ar
    23    15    16   ar
    24    16    17   ar
    25    17    18   ar
    26     8     9   ar
    27     9    10   ar
    28    10    11    1
    29    25    20   ar
    30    31    26   ar
    31    10     5   ar
    32    18    13   ar
    33     3     4    1
    34    11    12    1
