@<TRIPOS>MOLECULE
*****
 28 32 0 0 0
SMALL
GASTEIGER

@<TRIPOS>ATOM
      1 C         142.9668  139.5251  162.7444 C.3     1  UNL1        0.1122
      2 C         143.3812  140.5580  161.7387 C.3     1  UNL1        0.0160
      3 C         143.4081  140.2148  160.2787 C.3     1  UNL1        0.0425
      4 C         143.0206  138.8387  159.8245 C.3     1  UNL1        0.1561
      5 C         142.6063  137.8059  160.8302 C.3     1  UNL1        0.0425
      6 C         142.5794  138.1491  162.2901 C.3     1  UNL1        0.0160
      7 C         142.6619  137.5118  159.2240 C.3     1  UNL1        0.1414
      8 N         142.8305  137.6152  157.7370 N.am    1  UNL1       -0.2215
      9 C         143.2935  139.0060  157.4186 C.2     1  UNL1        0.4086
     10 O         143.5873  139.5458  156.0504 O.2     1  UNL1       -0.2258
     11 O         143.4110  139.7622  158.7087 O.3     1  UNL1       -0.4398
     12 C         142.9227  141.7181  168.8101 C.2     1  UNL1        0.0547
     13 C         142.7812  140.2638  169.1494 C.2     1  UNL1        0.0103
     14 C         142.7337  139.2394  168.0546 C.2     1  UNL1        0.0505
     15 C         142.8278  139.6693  166.6206 C.2     1  UNL1        0.2318
     16 N         142.8096  138.8936  165.3370 N.2     1  UNL1       -0.0351
     17 C         142.9399  139.8683  164.2044 C.2     1  UNL1        0.3506
     18 N         143.0386  141.2466  164.7881 N.2     1  UNL1       -0.0389
     19 C         142.9693  141.1237  166.2814 C.2     1  UNL1        0.2181
     20 C         143.0168  142.1480  167.3761 C.3     1  UNL1        0.1144
     21 N         143.0176  143.7668  170.9996 N.1     1  UNL1       -0.1911
     22 C         142.9702  142.7424  169.9048 C.1     1  UNL1        0.0965
     23 C         142.5802  136.5200  156.7430 C.ar    1  UNL1        0.0571
     24 C         143.6527  135.5132  156.4504 C.ar    1  UNL1        0.0150
     25 C         143.4024  134.4180  155.4565 C.ar    1  UNL1        0.0013
     26 C         142.0795  134.3298  154.7551 C.ar    1  UNL1        0.0001
     27 C         141.0068  135.3367  155.0477 C.ar    1  UNL1        0.0013
     28 C         141.2572  136.4318  156.0416 C.ar    1  UNL1        0.0150
@<TRIPOS>BOND
     1    21    22    3
     2    22    12    1
     3    12    13    2
     4    13    14    1
     5    14    15    2
     6    15    16    1
     7    16    17    2
     8     1    17    1
     9     1     2    1
    10     2     3    1
    11     4     3    1
    12     4     5    1
    13     5     6    1
    14     4     7    1
    15     7     8    1
    16     8    23    1
    17    23    24   ar
    18    24    25   ar
    19    25    26   ar
    20    26    27   ar
    21    27    28   ar
    22     8     9   am
    23     9    10    2
    24     9    11    1
    25    17    18    1
    26    18    19    2
    27    19    20    1
    28    20    12    1
    29    19    15    1
    30     6     1    1
    31    28    23   ar
    32    11     4    1
@<TRIPOS>MOLECULE
*****
 28 32 0 0 0
SMALL
GASTEIGER

@<TRIPOS>ATOM
      1 C         140.8801  143.4822  162.4557 C.3     1  UNL1        0.1122
      2 C         140.5162  142.3601  161.5293 C.3     1  UNL1        0.0160
      3 C         140.2172  142.6451  160.0873 C.3     1  UNL1        0.0425
      4 C         140.2823  144.0522  159.5718 C.3     1  UNL1        0.1561
      5 C         140.6462  145.1743  160.4982 C.3     1  UNL1        0.0425
      6 C         140.9451  144.8893  161.9402 C.3     1  UNL1        0.0160
      7 C         140.3070  145.4011  158.9161 C.3     1  UNL1        0.1414
      8 N         139.9461  145.2210  157.4713 N.am    1  UNL1       -0.2215
      9 C         139.6984  143.7606  157.2340 C.2     1  UNL1        0.4086
     10 O         139.3110  143.1329  155.9280 O.2     1  UNL1       -0.2258
     11 O         139.9062  143.0384  158.5321 O.3     1  UNL1       -0.4398
     12 C         141.4417  142.4075  168.7909 C.2     1  UNL1        0.0547
     13 C         142.8716  142.1226  168.4382 C.2     1  UNL1        0.0103
     14 C         143.3277  142.2270  167.0130 C.2     1  UNL1        0.0505
     15 C         142.3539  142.6162  165.9405 C.2     1  UNL1        0.2318
     16 N         142.5115  142.7992  164.4601 N.2     1  UNL1       -0.0351
     17 C         141.1790  143.1972  163.8978 C.2     1  UNL1        0.3506
     18 N         140.1979  143.2601  165.0307 N.2     1  UNL1       -0.0389
     19 C         140.9240  142.9011  166.2932 C.2     1  UNL1        0.2181
     20 C         140.4680  142.7967  167.7184 C.3     1  UNL1        0.1144
     21 N         140.5296  142.1987  171.6412 N.1     1  UNL1       -0.1911
     22 C         140.9857  142.3031  170.2160 C.1     1  UNL1        0.0965
     23 C         139.8499  146.3098  156.4442 C.ar    1  UNL1        0.0571
     24 C         140.5885  146.1827  155.1449 C.ar    1  UNL1        0.0150
     25 C         140.4922  147.2716  154.1178 C.ar    1  UNL1        0.0013
     26 C         139.6574  148.4876  154.3899 C.ar    1  UNL1        0.0001
     27 C         138.9187  148.6148  155.6892 C.ar    1  UNL1        0.0013
     28 C         139.0150  147.5259  156.7163 C.ar    1  UNL1        0.0150
@<TRIPOS>BOND
     1    21    22    3
     2    22    12    1
     3    12    13    2
     4    13    14    1
     5    14    15    2
     6    15    16    1
     7    16    17    2
     8     1    17    1
     9     1     2    1
    10     2     3    1
    11     4     3    1
    12     4     5    1
    13     5     6    1
    14     4     7    1
    15     7     8    1
    16     8    23    1
    17    23    24   ar
    18    24    25   ar
    19    25    26   ar
    20    26    27   ar
    21    27    28   ar
    22     8     9   am
    23     9    10    2
    24     9    11    1
    25    17    18    1
    26    18    19    2
    27    19    20    1
    28    20    12    1
    29    19    15    1
    30     6     1    1
    31    28    23   ar
    32    11     4    1
@<TRIPOS>MOLECULE
*****
 28 32 0 0 0
SMALL
GASTEIGER

@<TRIPOS>ATOM
      1 C         142.3889  139.3299  163.0773 C.3     1  UNL1        0.1122
      2 C         143.5443  138.6658  162.3887 C.3     1  UNL1        0.0160
      3 C         143.4301  138.2682  160.9469 C.3     1  UNL1        0.0425
      4 C         142.1607  138.5347  160.1937 C.3     1  UNL1        0.1561
      5 C         141.0053  139.1988  160.8822 C.3     1  UNL1        0.0425
      6 C         141.1195  139.5964  162.3240 C.3     1  UNL1        0.0160
      7 C         140.9610  138.7356  159.3159 C.3     1  UNL1        0.1414
      8 N         141.2850  138.1914  157.9561 N.am    1  UNL1       -0.2215
      9 C         142.6851  137.6541  157.9935 C.2     1  UNL1        0.4086
     10 O         143.4156  137.0166  156.8491 O.2     1  UNL1       -0.2258
     11 O         143.2262  137.8662  159.3763 O.3     1  UNL1       -0.4398
     12 C         142.9379  141.7476  169.0319 C.2     1  UNL1        0.0547
     13 C         142.8145  140.3091  169.4384 C.2     1  UNL1        0.0103
     14 C         142.6540  139.2454  168.3930 C.2     1  UNL1        0.0505
     15 C         142.6169  139.6203  166.9411 C.2     1  UNL1        0.2318
     16 N         142.4702  138.7975  165.6955 N.2     1  UNL1       -0.0351
     17 C         142.5030  139.7276  164.5191 C.2     1  UNL1        0.3506
     18 N         142.6699  141.1252  165.0377 N.2     1  UNL1       -0.0389
     19 C         142.7403  141.0589  166.5346 C.2     1  UNL1        0.2181
     20 C         142.9008  142.1225  167.5799 C.3     1  UNL1        0.1144
     21 N         143.2590  143.8750  171.1226 N.1     1  UNL1       -0.1911
     22 C         143.0985  142.8113  170.0772 C.1     1  UNL1        0.0965
     23 C         140.3699  138.1855  156.7677 C.ar    1  UNL1        0.0571
     24 C         139.6966  139.4535  156.3333 C.ar    1  UNL1        0.0150
     25 C         138.7814  139.4476  155.1449 C.ar    1  UNL1        0.0013
     26 C         138.5395  138.1738  154.3909 C.ar    1  UNL1        0.0001
     27 C         139.2127  136.9057  154.8253 C.ar    1  UNL1        0.0013
     28 C         140.1279  136.9116  156.0138 C.ar    1  UNL1        0.0150
@<TRIPOS>BOND
     1    21    22    3
     2    22    12    1
     3    12    13    2
     4    13    14    1
     5    14    15    2
     6    15    16    1
     7    16    17    2
     8     1    17    1
     9     1     2    1
    10     2     3    1
    11     4     3    1
    12     4     5    1
    13     5     6    1
    14     4     7    1
    15     7     8    1
    16     8    23    1
    17    23    24   ar
    18    24    25   ar
    19    25    26   ar
    20    26    27   ar
    21    27    28   ar
    22     8     9   am
    23     9    10    2
    24     9    11    1
    25    17    18    1
    26    18    19    2
    27    19    20    1
    28    20    12    1
    29    19    15    1
    30     6     1    1
    31    28    23   ar
    32    11     4    1
@<TRIPOS>MOLECULE
*****
 28 32 0 0 0
SMALL
GASTEIGER

@<TRIPOS>ATOM
      1 C         142.0370  142.0297  162.9879 C.3     1  UNL1        0.1122
      2 C         141.2413  142.9149  162.0752 C.3     1  UNL1        0.0160
      3 C         141.7191  143.1737  160.6771 C.3     1  UNL1        0.0425
      4 C         142.9926  142.5472  160.1917 C.3     1  UNL1        0.1561
      5 C         143.7884  141.6619  161.1044 C.3     1  UNL1        0.0425
      6 C         143.3106  141.4032  162.5025 C.3     1  UNL1        0.0160
      7 C         144.2400  141.9932  159.5695 C.3     1  UNL1        0.1414
      8 N         144.3253  142.5090  158.1635 N.am    1  UNL1       -0.2215
      9 C         143.1305  143.3819  157.9168 C.2     1  UNL1        0.4086
     10 O         142.8149  144.1042  156.6407 O.2     1  UNL1       -0.2258
     11 O         142.3070  143.4055  159.1702 O.3     1  UNL1       -0.4398
     12 C         140.4298  141.4827  169.2106 C.2     1  UNL1        0.0547
     13 C         139.5633  140.3663  168.7079 C.2     1  UNL1        0.0103
     14 C         139.5438  140.0322  167.2456 C.2     1  UNL1        0.0505
     15 C         140.3908  140.8145  166.2862 C.2     1  UNL1        0.2318
     16 N         140.5774  140.7156  164.8011 N.2     1  UNL1       -0.0351
     17 C         141.5592  141.7709  164.3860 C.2     1  UNL1        0.3506
     18 N         141.9795  142.5220  165.6146 N.2     1  UNL1       -0.0389
     19 C         141.2573  141.9309  166.7889 C.2     1  UNL1        0.2181
     20 C         141.2768  142.2650  168.2511 C.3     1  UNL1        0.1144
     21 N         140.4688  142.1510  172.1350 N.1     1  UNL1       -0.1911
     22 C         140.4493  141.8168  170.6727 C.1     1  UNL1        0.0965
     23 C         145.4141  142.2053  157.1774 C.ar    1  UNL1        0.0571
     24 C         145.1344  141.3177  156.0011 C.ar    1  UNL1        0.0150
     25 C         146.2231  141.0140  155.0150 C.ar    1  UNL1        0.0013
     26 C         147.5916  141.5980  155.2053 C.ar    1  UNL1        0.0001
     27 C         147.8713  142.4856  156.3817 C.ar    1  UNL1        0.0013
     28 C         146.7825  142.7893  157.3677 C.ar    1  UNL1        0.0150
@<TRIPOS>BOND
     1    21    22    3
     2    22    12    1
     3    12    13    2
     4    13    14    1
     5    14    15    2
     6    15    16    1
     7    16    17    2
     8     1    17    1
     9     1     2    1
    10     2     3    1
    11     4     3    1
    12     4     5    1
    13     5     6    1
    14     4     7    1
    15     7     8    1
    16     8    23    1
    17    23    24   ar
    18    24    25   ar
    19    25    26   ar
    20    26    27   ar
    21    27    28   ar
    22     8     9   am
    23     9    10    2
    24     9    11    1
    25    17    18    1
    26    18    19    2
    27    19    20    1
    28    20    12    1
    29    19    15    1
    30     6     1    1
    31    28    23   ar
    32    11     4    1
@<TRIPOS>MOLECULE
*****
 28 32 0 0 0
SMALL
GASTEIGER

@<TRIPOS>ATOM
      1 C         140.0290  143.5493  161.1242 C.3     1  UNL1        0.1122
      2 C         139.2073  142.3589  161.5212 C.3     1  UNL1        0.0160
      3 C         139.2639  141.8443  162.9290 C.3     1  UNL1        0.0425
      4 C         140.1423  142.5202  163.9398 C.3     1  UNL1        0.1561
      5 C         140.9640  143.7106  163.5428 C.3     1  UNL1        0.0425
      6 C         140.9074  144.2251  162.1350 C.3     1  UNL1        0.0160
      7 C         140.9697  143.0894  165.0540 C.3     1  UNL1        0.1414
      8 N         140.7202  142.2670  166.2835 N.am    1  UNL1       -0.2215
      9 C         139.7386  141.1895  165.9291 C.2     1  UNL1        0.4086
     10 O         139.2075  140.1398  166.8597 O.2     1  UNL1       -0.2258
     11 O         139.3815  141.3459  164.4807 O.3     1  UNL1       -0.4398
     12 C         139.8774  146.4478  155.3640 C.2     1  UNL1        0.0547
     13 C         139.6970  145.0469  154.8591 C.2     1  UNL1        0.0103
     14 C         139.6559  143.9007  155.8259 C.2     1  UNL1        0.0505
     15 C         139.7951  144.1555  157.2975 C.2     1  UNL1        0.2318
     16 N         139.7932  143.2331  158.4804 N.2     1  UNL1       -0.0351
     17 C         139.9724  144.0640  159.7164 C.2     1  UNL1        0.3506
     18 N         140.0851  145.4998  159.2973 N.2     1  UNL1       -0.0389
     19 C         139.9755  145.5564  157.8024 C.2     1  UNL1        0.2181
     20 C         140.0166  146.7026  156.8357 C.3     1  UNL1        0.1144
     21 N         139.9598  148.7401  153.4305 N.1     1  UNL1       -0.1911
     22 C         139.9186  147.5939  154.3973 C.1     1  UNL1        0.0965
     23 C         141.3430  142.4840  167.6308 C.ar    1  UNL1        0.0571
     24 C         142.7783  142.1150  167.8617 C.ar    1  UNL1        0.0150
     25 C         143.4011  142.3320  169.2090 C.ar    1  UNL1        0.0013
     26 C         142.5884  142.9180  170.3252 C.ar    1  UNL1        0.0001
     27 C         141.1530  143.2870  170.0943 C.ar    1  UNL1        0.0013
     28 C         140.5302  143.0700  168.7470 C.ar    1  UNL1        0.0150
@<TRIPOS>BOND
     1    21    22    3
     2    22    12    1
     3    12    13    2
     4    13    14    1
     5    14    15    2
     6    15    16    1
     7    16    17    2
     8     1    17    1
     9     1     2    1
    10     2     3    1
    11     4     3    1
    12     4     5    1
    13     5     6    1
    14     4     7    1
    15     7     8    1
    16     8    23    1
    17    23    24   ar
    18    24    25   ar
    19    25    26   ar
    20    26    27   ar
    21    27    28   ar
    22     8     9   am
    23     9    10    2
    24     9    11    1
    25    17    18    1
    26    18    19    2
    27    19    20    1
    28    20    12    1
    29    19    15    1
    30     6     1    1
    31    28    23   ar
    32    11     4    1
@<TRIPOS>MOLECULE
*****
 28 32 0 0 0
SMALL
GASTEIGER

@<TRIPOS>ATOM
      1 C         141.5236  138.7768  161.7282 C.3     1  UNL1        0.1122
      2 C         142.5348  138.0306  162.5471 C.3     1  UNL1        0.0160
      3 C         142.6472  138.2916  164.0199 C.3     1  UNL1        0.0425
      4 C         141.7483  139.2987  164.6739 C.3     1  UNL1        0.1561
      5 C         140.7370  140.0448  163.8551 C.3     1  UNL1        0.0425
      6 C         140.6247  139.7839  162.3822 C.3     1  UNL1        0.0160
      7 C         140.9221  140.2710  165.4626 C.3     1  UNL1        0.1414
      8 N         141.3698  140.2063  166.8929 N.am    1  UNL1       -0.2215
      9 C         142.4727  139.1940  166.9880 C.2     1  UNL1        0.4086
     10 O         143.2118  138.8101  168.2355 O.2     1  UNL1       -0.2258
     11 O         142.7066  138.6331  165.6167 O.3     1  UNL1       -0.4398
     12 C         140.2978  137.7300  155.4828 C.2     1  UNL1        0.0547
     13 C         141.7890  137.5951  155.3928 C.2     1  UNL1        0.0103
     14 C         142.6320  137.7536  156.6234 C.2     1  UNL1        0.0505
     15 C         141.9838  138.0470  157.9439 C.2     1  UNL1        0.2318
     16 N         142.5515  138.2534  159.3169 N.2     1  UNL1       -0.0351
     17 C         141.4112  138.5159  160.2553 C.2     1  UNL1        0.3506
     18 N         140.1386  138.4716  159.4624 N.2     1  UNL1       -0.0389
     19 C         140.4925  138.1818  158.0338 C.2     1  UNL1        0.2181
     20 C         139.6496  138.0233  156.8033 C.3     1  UNL1        0.1144
     21 N         138.6118  137.4129  153.0217 N.1     1  UNL1       -0.1911
     22 C         139.4549  137.5715  154.2522 C.1     1  UNL1        0.0965
     23 C         140.8125  141.0124  168.0285 C.ar    1  UNL1        0.0571
     24 C         141.1341  142.4731  168.1401 C.ar    1  UNL1        0.0150
     25 C         140.5768  143.2792  169.2757 C.ar    1  UNL1        0.0013
     26 C         139.6978  142.6245  170.2997 C.ar    1  UNL1        0.0001
     27 C         139.3762  141.1636  170.1881 C.ar    1  UNL1        0.0013
     28 C         139.9335  140.3576  169.0525 C.ar    1  UNL1        0.0150
@<TRIPOS>BOND
     1    21    22    3
     2    22    12    1
     3    12    13    2
     4    13    14    1
     5    14    15    2
     6    15    16    1
     7    16    17    2
     8     1    17    1
     9     1     2    1
    10     2     3    1
    11     4     3    1
    12     4     5    1
    13     5     6    1
    14     4     7    1
    15     7     8    1
    16     8    23    1
    17    23    24   ar
    18    24    25   ar
    19    25    26   ar
    20    26    27   ar
    21    27    28   ar
    22     8     9   am
    23     9    10    2
    24     9    11    1
    25    17    18    1
    26    18    19    2
    27    19    20    1
    28    20    12    1
    29    19    15    1
    30     6     1    1
    31    28    23   ar
    32    11     4    1
@<TRIPOS>MOLECULE
*****
 28 32 0 0 0
SMALL
GASTEIGER

@<TRIPOS>ATOM
      1 C         142.9854  142.2360  160.8697 C.3     1  UNL1        0.1122
      2 C         142.0491  143.4059  160.9371 C.3     1  UNL1        0.0160
      3 C         141.2676  143.6697  162.1899 C.3     1  UNL1        0.0425
      4 C         141.4223  142.7637  163.3752 C.3     1  UNL1        0.1561
      5 C         142.3586  141.5937  163.3078 C.3     1  UNL1        0.0425
      6 C         143.1402  141.3299  162.0550 C.3     1  UNL1        0.0160
      7 C         141.4725  141.9491  164.6338 C.3     1  UNL1        0.1414
      8 N         140.5345  142.5704  165.6259 N.am    1  UNL1       -0.2215
      9 C         139.9045  143.7690  164.9804 C.2     1  UNL1        0.4086
     10 O         138.9020  144.6870  165.6145 O.2     1  UNL1       -0.2258
     11 O         140.4532  143.8885  163.5895 O.3     1  UNL1       -0.4398
     12 C         146.7809  141.6803  155.6841 C.2     1  UNL1        0.0547
     13 C         145.8665  140.5379  155.3542 C.2     1  UNL1        0.0103
     14 C         144.7323  140.1952  156.2742 C.2     1  UNL1        0.0505
     15 C         144.5126  140.9949  157.5241 C.2     1  UNL1        0.2318
     16 N         143.4867  140.8928  158.6136 N.2     1  UNL1       -0.0351
     17 C         143.7671  141.9721  159.6168 C.2     1  UNL1        0.3506
     18 N         144.9663  142.7412  159.1474 N.2     1  UNL1       -0.0389
     19 C         145.4271  142.1373  157.8540 C.2     1  UNL1        0.2181
     20 C         146.5612  142.4799  156.9340 C.3     1  UNL1        0.1144
     21 N         149.0492  142.3656  153.8442 N.1     1  UNL1       -0.1911
     22 C         147.9150  142.0229  154.7642 C.1     1  UNL1        0.0965
     23 C         140.2724  142.0794  167.0188 C.ar    1  UNL1        0.0571
     24 C         139.7768  140.6812  167.2402 C.ar    1  UNL1        0.0150
     25 C         139.5147  140.1901  168.6331 C.ar    1  UNL1        0.0013
     26 C         139.7483  141.0973  169.8046 C.ar    1  UNL1        0.0001
     27 C         140.2440  142.4956  169.5831 C.ar    1  UNL1        0.0013
     28 C         140.5060  142.9867  168.1902 C.ar    1  UNL1        0.0150
@<TRIPOS>BOND
     1    21    22    3
     2    22    12    1
     3    12    13    2
     4    13    14    1
     5    14    15    2
     6    15    16    1
     7    16    17    2
     8     1    17    1
     9     1     2    1
    10     2     3    1
    11     4     3    1
    12     4     5    1
    13     5     6    1
    14     4     7    1
    15     7     8    1
    16     8    23    1
    17    23    24   ar
    18    24    25   ar
    19    25    26   ar
    20    26    27   ar
    21    27    28   ar
    22     8     9   am
    23     9    10    2
    24     9    11    1
    25    17    18    1
    26    18    19    2
    27    19    20    1
    28    20    12    1
    29    19    15    1
    30     6     1    1
    31    28    23   ar
    32    11     4    1
@<TRIPOS>MOLECULE
*****
 28 32 0 0 0
SMALL
GASTEIGER

@<TRIPOS>ATOM
      1 C         139.0271  141.8007  161.7878 C.3     1  UNL1        0.1122
      2 C         137.9616  140.8268  162.1954 C.3     1  UNL1        0.0160
      3 C         137.9560  140.2590  163.5838 C.3     1  UNL1        0.0425
      4 C         139.0158  140.6652  164.5645 C.3     1  UNL1        0.1561
      5 C         140.0813  141.6391  164.1569 C.3     1  UNL1        0.0425
      6 C         140.0869  142.2068  162.7685 C.3     1  UNL1        0.0160
      7 C         140.0052  140.9760  165.6482 C.3     1  UNL1        0.1414
      8 N         139.6206  140.1898  166.8665 N.am    1  UNL1       -0.2215
      9 C         138.3935  139.3930  166.5356 C.2     1  UNL1        0.4086
     10 O         137.6677  138.4654  167.4643 O.2     1  UNL1       -0.2258
     11 O         138.0197  139.6868  165.1130 O.3     1  UNL1       -0.4398
     12 C         139.5372  144.7541  156.0763 C.2     1  UNL1        0.0547
     13 C         138.5658  143.6976  155.6401 C.2     1  UNL1        0.0103
     14 C         138.0752  142.6775  156.6245 C.2     1  UNL1        0.0505
     15 C         138.5559  142.7140  158.0449 C.2     1  UNL1        0.2318
     16 N         138.2503  141.8475  159.2305 N.2     1  UNL1       -0.0351
     17 C         139.0328  142.3685  160.3994 C.2     1  UNL1        0.3506
     18 N         139.8220  143.5571  159.9361 N.2     1  UNL1       -0.0389
     19 C         139.5273  143.7706  158.4810 C.2     1  UNL1        0.2181
     20 C         140.0179  144.7906  157.4967 C.3     1  UNL1        0.1144
     21 N         140.5184  146.7942  154.1077 N.1     1  UNL1       -0.1911
     22 C         140.0277  145.7741  155.0920 C.1     1  UNL1        0.0965
     23 C         140.3373  140.1988  168.1842 C.ar    1  UNL1        0.0571
     24 C         139.6279  140.6657  169.4205 C.ar    1  UNL1        0.0150
     25 C         140.3446  140.6747  170.7382 C.ar    1  UNL1        0.0013
     26 C         141.7706  140.2167  170.8195 C.ar    1  UNL1        0.0001
     27 C         142.4800  139.7497  169.5831 C.ar    1  UNL1        0.0013
     28 C         141.7633  139.7407  168.2654 C.ar    1  UNL1        0.0150
@<TRIPOS>BOND
     1    21    22    3
     2    22    12    1
     3    12    13    2
     4    13    14    1
     5    14    15    2
     6    15    16    1
     7    16    17    2
     8     1    17    1
     9     1     2    1
    10     2     3    1
    11     4     3    1
    12     4     5    1
    13     5     6    1
    14     4     7    1
    15     7     8    1
    16     8    23    1
    17    23    24   ar
    18    24    25   ar
    19    25    26   ar
    20    26    27   ar
    21    27    28   ar
    22     8     9   am
    23     9    10    2
    24     9    11    1
    25    17    18    1
    26    18    19    2
    27    19    20    1
    28    20    12    1
    29    19    15    1
    30     6     1    1
    31    28    23   ar
    32    11     4    1
@<TRIPOS>MOLECULE
*****
 28 32 0 0 0
SMALL
GASTEIGER

@<TRIPOS>ATOM
      1 C         139.9658  142.9736  162.6293 C.3     1  UNL1        0.1122
      2 C         140.7603  144.1874  162.2480 C.3     1  UNL1        0.0160
      3 C         140.7683  144.6619  160.8252 C.3     1  UNL1        0.0425
      4 C         139.9818  143.9227  159.7835 C.3     1  UNL1        0.1561
      5 C         139.1873  142.7089  160.1648 C.3     1  UNL1        0.0425
      6 C         139.1793  142.2343  161.5877 C.3     1  UNL1        0.0160
      7 C         139.2480  143.2894  158.6387 C.3     1  UNL1        0.1414
      8 N         139.5377  144.0892  157.4032 N.am    1  UNL1       -0.2215
      9 C         140.4506  145.2169  157.7845 C.2     1  UNL1        0.4086
     10 O         140.9935  146.2636  156.8574 O.2     1  UNL1       -0.2258
     11 O         140.7250  145.1139  159.2555 O.3     1  UNL1       -0.4398
     12 C         140.1949  141.6124  168.9300 C.2     1  UNL1        0.0547
     13 C         139.6683  140.2809  168.4830 C.2     1  UNL1        0.0103
     14 C         139.4120  140.0261  167.0272 C.2     1  UNL1        0.0505
     15 C         139.6822  141.1029  166.0184 C.2     1  UNL1        0.2318
     16 N         139.5271  141.1428  164.5270 N.2     1  UNL1       -0.0351
     17 C         139.9578  142.4989  164.0523 C.2     1  UNL1        0.3506
     18 N         140.3791  143.2972  165.2504 N.2     1  UNL1       -0.0389
     19 C         140.2087  142.4344  166.4655 C.2     1  UNL1        0.2181
     20 C         140.4650  142.6892  167.9213 C.3     1  UNL1        0.1144
     21 N         140.7075  142.1219  171.8417 N.1     1  UNL1       -0.1911
     22 C         140.4512  141.8671  170.3858 C.1     1  UNL1        0.0965
     23 C         139.0077  143.8104  156.0280 C.ar    1  UNL1        0.0571
     24 C         137.7091  144.4181  155.5872 C.ar    1  UNL1        0.0150
     25 C         137.1791  144.1393  154.2120 C.ar    1  UNL1        0.0013
     26 C         137.9476  143.2528  153.2775 C.ar    1  UNL1        0.0001
     27 C         139.2463  142.6451  153.7182 C.ar    1  UNL1        0.0013
     28 C         139.7763  142.9239  155.0935 C.ar    1  UNL1        0.0150
@<TRIPOS>BOND
     1    21    22    3
     2    22    12    1
     3    12    13    2
     4    13    14    1
     5    14    15    2
     6    15    16    1
     7    16    17    2
     8     1    17    1
     9     1     2    1
    10     2     3    1
    11     4     3    1
    12     4     5    1
    13     5     6    1
    14     4     7    1
    15     7     8    1
    16     8    23    1
    17    23    24   ar
    18    24    25   ar
    19    25    26   ar
    20    26    27   ar
    21    27    28   ar
    22     8     9   am
    23     9    10    2
    24     9    11    1
    25    17    18    1
    26    18    19    2
    27    19    20    1
    28    20    12    1
    29    19    15    1
    30     6     1    1
    31    28    23   ar
    32    11     4    1
