@<TRIPOS>MOLECULE
*****
 27 30 0 0 0
SMALL
GASTEIGER

@<TRIPOS>ATOM
      1 N         141.6456  142.3387  168.2585 N.3     1  UNL1       -0.2687
      2 C         141.3413  143.0409  169.5486 C.3     1  UNL1        0.0615
      3 C         142.6032  143.0909  170.3580 C.3     1  UNL1        0.0175
      4 C         143.6874  142.4197  169.5682 C.3     1  UNL1        0.0175
      5 C         143.0956  141.9547  168.2706 C.3     1  UNL1        0.0615
      6 C         142.2447  141.6075  167.0729 C.3     1  UNL1        0.0595
      7 C         140.8184  142.0535  167.2031 C.3     1  UNL1        0.1686
      8 C         140.3668  142.7702  168.4410 C.3     1  UNL1        0.0595
      9 C         140.6710  142.0680  167.1509 C.3     1  UNL1        0.1375
     10 C         141.5578  145.1865  162.9833 C.3     1  UNL1        0.0725
     11 C         140.8868  144.5102  164.1418 C.ar    1  UNL1        0.1229
     12 C         139.4811  144.7481  164.6080 C.ar    1  UNL1        0.0358
     13 C         139.2291  143.8622  165.7919 C.ar    1  UNL1        0.0371
     14 C         140.4792  143.0768  166.0575 C.ar    1  UNL1        0.1385
     15 O         141.5036  143.4773  165.0377 O.2     1  UNL1       -0.4606
     16 O         139.8438  141.7828  166.0954 O.3     1  UNL1       -0.4791
     17 C         139.4031  140.3775  165.8110 C.ar    1  UNL1        0.1385
     18 C         138.6155  139.6165  166.8360 C.ar    1  UNL1        0.0369
     19 C         138.1748  138.2112  166.5516 C.ar    1  UNL1        0.0033
     20 C         138.5217  137.5669  165.2422 C.ar    1  UNL1        0.0047
     21 C         139.3093  138.3279  164.2172 C.ar    1  UNL1        0.0561
     22 C         139.7500  139.7332  164.5016 C.ar    1  UNL1        0.0414
     23 C         139.6561  137.6835  162.9079 C.2     1  UNL1        0.2428
     24 N         138.6764  137.7174  161.7725 N.am    1  UNL1       -0.3253
     25 O         140.9827  137.0053  162.7338 O.2     1  UNL1       -0.2704
     26 H         137.8058  138.1625  161.8867 H       1  UNL1        0.1453
     27 H         138.9041  137.2944  160.9131 H       1  UNL1        0.1453
@<TRIPOS>BOND
     1    10    11    1
     2    11    12   ar
     3    12    13   ar
     4    13    14   ar
     5    14     9    1
     6     9     1    1
     7     1     2    1
     8     2     3    1
     9     3     4    1
    10     5     4    1
    11     5     6    1
    12     6     7    1
    13     7    16    1
    14    16    17    1
    15    17    18   ar
    16    18    19   ar
    17    19    20   ar
    18    20    21   ar
    19    21    23    1
    20    23    24   am
    21    23    25    2
    22    21    22   ar
    23     7     8    1
    24    14    15   ar
    25    15    11   ar
    26     5     1    1
    27    22    17   ar
    28     8     2    1
    29    24    26    1
    30    24    27    1
@<TRIPOS>MOLECULE
*****
 27 30 0 0 0
SMALL
GASTEIGER

@<TRIPOS>ATOM
      1 N         139.7949  139.8986  163.8666 N.3     1  UNL1       -0.2687
      2 C         140.5790  139.3072  162.7328 C.3     1  UNL1        0.0615
      3 C         139.9714  137.9789  162.3920 C.3     1  UNL1        0.0175
      4 C         138.8116  137.7492  163.3152 C.3     1  UNL1        0.0175
      5 C         138.7025  138.9356  164.2265 C.3     1  UNL1        0.0615
      6 C         138.8324  140.2315  164.9900 C.3     1  UNL1        0.0595
      7 C         139.9679  141.0915  164.5197 C.3     1  UNL1        0.1686
      8 C         140.8412  140.6294  163.3911 C.3     1  UNL1        0.0595
      9 C         140.0570  141.2207  164.5249 C.3     1  UNL1        0.1375
     10 C         139.5852  145.8304  161.9936 C.3     1  UNL1        0.0725
     11 C         139.2608  144.5950  162.7797 C.ar    1  UNL1        0.1229
     12 C         137.9111  144.2209  163.3169 C.ar    1  UNL1        0.0358
     13 C         138.0451  142.9113  164.0359 C.ar    1  UNL1        0.0371
     14 C         139.4776  142.4761  163.9433 C.ar    1  UNL1        0.1385
     15 O         140.2288  143.5166  163.1669 O.2     1  UNL1       -0.4606
     16 O         140.2300  142.4136  165.1780 O.3     1  UNL1       -0.4791
     17 C         140.9647  142.4683  166.4846 C.ar    1  UNL1        0.1385
     18 C         142.4002  142.0392  166.5563 C.ar    1  UNL1        0.0369
     19 C         143.1349  142.0938  167.8629 C.ar    1  UNL1        0.0033
     20 C         142.4342  142.5776  169.0977 C.ar    1  UNL1        0.0047
     21 C         140.9987  143.0067  169.0260 C.ar    1  UNL1        0.0561
     22 C         140.2640  142.9521  167.7194 C.ar    1  UNL1        0.0414
     23 C         140.2980  143.4905  170.2609 C.2     1  UNL1        0.2428
     24 N         139.9944  142.5330  171.3748 N.am    1  UNL1       -0.3253
     25 O         139.9008  144.9320  170.3818 O.2     1  UNL1       -0.2704
     26 H         140.2551  141.5869  171.2955 H       1  UNL1        0.1453
     27 H         139.5345  142.8505  172.1853 H       1  UNL1        0.1453
@<TRIPOS>BOND
     1    10    11    1
     2    11    12   ar
     3    12    13   ar
     4    13    14   ar
     5    14     9    1
     6     9     1    1
     7     1     2    1
     8     2     3    1
     9     3     4    1
    10     5     4    1
    11     5     6    1
    12     6     7    1
    13     7    16    1
    14    16    17    1
    15    17    18   ar
    16    18    19   ar
    17    19    20   ar
    18    20    21   ar
    19    21    23    1
    20    23    24   am
    21    23    25    2
    22    21    22   ar
    23     7     8    1
    24    14    15   ar
    25    15    11   ar
    26     5     1    1
    27    22    17   ar
    28     8     2    1
    29    24    26    1
    30    24    27    1
@<TRIPOS>MOLECULE
*****
 27 30 0 0 0
SMALL
GASTEIGER

@<TRIPOS>ATOM
      1 N         143.4501  141.8423  164.4364 N.3     1  UNL1       -0.2687
      2 C         144.8037  142.4849  164.5072 C.3     1  UNL1        0.0615
      3 C         145.7265  141.7228  163.6031 C.3     1  UNL1        0.0175
      4 C         144.9434  140.6091  162.9735 C.3     1  UNL1        0.0175
      5 C         143.5365  140.6829  163.4885 C.3     1  UNL1        0.0615
      6 C         142.2224  140.9955  164.1628 C.3     1  UNL1        0.0595
      7 C         142.2882  142.1797  165.0811 C.3     1  UNL1        0.1686
      8 C         143.5789  142.9244  165.2533 C.3     1  UNL1        0.0595
      9 C         142.2253  142.2818  165.1825 C.3     1  UNL1        0.1375
     10 C         137.7715  143.9457  162.8857 C.3     1  UNL1        0.0725
     11 C         139.1605  143.9172  163.4512 C.ar    1  UNL1        0.1229
     12 C         140.1230  145.0672  163.4834 C.ar    1  UNL1        0.0358
     13 C         141.3882  144.5946  164.1358 C.ar    1  UNL1        0.0371
     14 C         141.2077  143.1525  164.5069 C.ar    1  UNL1        0.1385
     15 O         139.8309  142.7339  164.0837 O.2     1  UNL1       -0.4606
     16 O         141.0633  142.6192  165.8272 O.3     1  UNL1       -0.4791
     17 C         140.6662  141.9213  167.0942 C.ar    1  UNL1        0.1385
     18 C         139.7667  140.7222  167.0396 C.ar    1  UNL1        0.0369
     19 C         139.3696  140.0243  168.3065 C.ar    1  UNL1        0.0033
     20 C         139.8719  140.5256  169.6280 C.ar    1  UNL1        0.0047
     21 C         140.7714  141.7247  169.6826 C.ar    1  UNL1        0.0561
     22 C         141.1685  142.4226  168.4156 C.ar    1  UNL1        0.0414
     23 C         141.2737  142.2260  171.0041 C.2     1  UNL1        0.2428
     24 N         142.6556  142.7990  171.1128 N.am    1  UNL1       -0.3253
     25 O         140.3940  142.1541  172.2170 O.2     1  UNL1       -0.2704
     26 H         143.2330  142.8462  170.3167 H       1  UNL1        0.1453
     27 H         142.9853  143.1280  171.9802 H       1  UNL1        0.1453
@<TRIPOS>BOND
     1    10    11    1
     2    11    12   ar
     3    12    13   ar
     4    13    14   ar
     5    14     9    1
     6     9     1    1
     7     1     2    1
     8     2     3    1
     9     3     4    1
    10     5     4    1
    11     5     6    1
    12     6     7    1
    13     7    16    1
    14    16    17    1
    15    17    18   ar
    16    18    19   ar
    17    19    20   ar
    18    20    21   ar
    19    21    23    1
    20    23    24   am
    21    23    25    2
    22    21    22   ar
    23     7     8    1
    24    14    15   ar
    25    15    11   ar
    26     5     1    1
    27    22    17   ar
    28     8     2    1
    29    24    26    1
    30    24    27    1
@<TRIPOS>MOLECULE
*****
 27 30 0 0 0
SMALL
GASTEIGER

@<TRIPOS>ATOM
      1 N         139.0583  142.4469  164.2595 N.3     1  UNL1       -0.2687
      2 C         137.6946  142.8658  163.7959 C.3     1  UNL1        0.0615
      3 C         137.7867  144.2792  163.3021 C.3     1  UNL1        0.0175
      4 C         139.2074  144.7338  163.4604 C.3     1  UNL1        0.0175
      5 C         139.9932  143.6014  164.0522 C.3     1  UNL1        0.0615
      6 C         140.5199  142.3149  164.6410 C.3     1  UNL1        0.0595
      7 C         139.4719  141.2520  164.7892 C.3     1  UNL1        0.1686
      8 C         138.0593  141.5274  164.3667 C.3     1  UNL1        0.0595
      9 C         139.4230  141.1086  164.8303 C.3     1  UNL1        0.1375
     10 C         141.7356  138.0079  161.2361 C.3     1  UNL1        0.0725
     11 C         140.7750  138.5310  162.2625 C.ar    1  UNL1        0.1229
     12 C         139.5384  137.8348  162.7483 C.ar    1  UNL1        0.0358
     13 C         138.8814  138.7156  163.7694 C.ar    1  UNL1        0.0371
     14 C         139.7120  139.9562  163.9146 C.ar    1  UNL1        0.1385
     15 O         140.8823  139.8421  162.9833 O.2     1  UNL1       -0.4606
     16 O         139.8367  139.9136  165.3600 O.3     1  UNL1       -0.4791
     17 C         140.5590  139.8294  166.6720 C.ar    1  UNL1        0.1385
     18 C         142.0232  139.5051  166.7025 C.ar    1  UNL1        0.0369
     19 C         142.7454  139.4208  168.0144 C.ar    1  UNL1        0.0033
     20 C         142.0035  139.6609  169.2958 C.ar    1  UNL1        0.0047
     21 C         140.5393  139.9852  169.2652 C.ar    1  UNL1        0.0561
     22 C         139.8170  140.0695  167.9532 C.ar    1  UNL1        0.0414
     23 C         139.7975  140.2253  170.5466 C.2     1  UNL1        0.2428
     24 N         138.3452  139.8647  170.6513 N.am    1  UNL1       -0.3253
     25 O         140.5078  140.8260  171.7233 O.2     1  UNL1       -0.2704
     26 H         137.8789  139.4705  169.8790 H       1  UNL1        0.1453
     27 H         137.8583  140.0223  171.4923 H       1  UNL1        0.1453
@<TRIPOS>BOND
     1    10    11    1
     2    11    12   ar
     3    12    13   ar
     4    13    14   ar
     5    14     9    1
     6     9     1    1
     7     1     2    1
     8     2     3    1
     9     3     4    1
    10     5     4    1
    11     5     6    1
    12     6     7    1
    13     7    16    1
    14    16    17    1
    15    17    18   ar
    16    18    19   ar
    17    19    20   ar
    18    20    21   ar
    19    21    23    1
    20    23    24   am
    21    23    25    2
    22    21    22   ar
    23     7     8    1
    24    14    15   ar
    25    15    11   ar
    26     5     1    1
    27    22    17   ar
    28     8     2    1
    29    24    26    1
    30    24    27    1
@<TRIPOS>MOLECULE
*****
 27 30 0 0 0
SMALL
GASTEIGER

@<TRIPOS>ATOM
      1 N         142.2969  143.2820  164.9673 N.3     1  UNL1       -0.2687
      2 C         143.6814  143.6745  164.5441 C.3     1  UNL1        0.0615
      3 C         143.5695  144.8659  163.6397 C.3     1  UNL1        0.0175
      4 C         142.1157  145.2098  163.5040 C.3     1  UNL1        0.0175
      5 C         141.3292  144.2309  164.3245 C.3     1  UNL1        0.0615
      6 C         140.8089  143.1291  165.2158 C.3     1  UNL1        0.0595
      7 C         141.8906  142.2608  165.7868 C.3     1  UNL1        0.1686
      8 C         143.3268  142.5334  165.4509 C.3     1  UNL1        0.0595
      9 C         141.9423  142.1410  165.8741 C.3     1  UNL1        0.1375
     10 C         139.9465  143.4353  170.5881 C.3     1  UNL1        0.0725
     11 C         140.8853  142.9661  169.5166 C.ar    1  UNL1        0.1229
     12 C         142.2906  142.4845  169.7246 C.ar    1  UNL1        0.0358
     13 C         142.8576  142.1168  168.3855 C.ar    1  UNL1        0.0371
     14 C         141.8028  142.3711  167.3498 C.ar    1  UNL1        0.1385
     15 O         140.5839  142.8960  168.0489 O.2     1  UNL1       -0.4606
     16 O         141.5360  141.1197  166.6936 O.3     1  UNL1       -0.4791
     17 C         140.5134  140.1099  166.2638 C.ar    1  UNL1        0.1385
     18 C         139.3277  139.8247  167.1371 C.ar    1  UNL1        0.0369
     19 C         138.3053  138.8149  166.7073 C.ar    1  UNL1        0.0033
     20 C         138.4684  138.0904  165.4040 C.ar    1  UNL1        0.0047
     21 C         139.6541  138.3756  164.5307 C.ar    1  UNL1        0.0561
     22 C         140.6766  139.3854  164.9606 C.ar    1  UNL1        0.0414
     23 C         139.8172  137.6511  163.2275 C.2     1  UNL1        0.2428
     24 N         138.7003  137.6478  162.2262 N.am    1  UNL1       -0.3253
     25 O         141.0973  136.9298  162.9254 O.2     1  UNL1       -0.2704
     26 H         137.8602  138.1212  162.4244 H       1  UNL1        0.1453
     27 H         138.8074  137.1723  161.3708 H       1  UNL1        0.1453
@<TRIPOS>BOND
     1    10    11    1
     2    11    12   ar
     3    12    13   ar
     4    13    14   ar
     5    14     9    1
     6     9     1    1
     7     1     2    1
     8     2     3    1
     9     3     4    1
    10     5     4    1
    11     5     6    1
    12     6     7    1
    13     7    16    1
    14    16    17    1
    15    17    18   ar
    16    18    19   ar
    17    19    20   ar
    18    20    21   ar
    19    21    23    1
    20    23    24   am
    21    23    25    2
    22    21    22   ar
    23     7     8    1
    24    14    15   ar
    25    15    11   ar
    26     5     1    1
    27    22    17   ar
    28     8     2    1
    29    24    26    1
    30    24    27    1
@<TRIPOS>MOLECULE
*****
 27 30 0 0 0
SMALL
GASTEIGER

@<TRIPOS>ATOM
      1 N         140.5142  139.1475  164.7266 N.3     1  UNL1       -0.2687
      2 C         140.3185  137.7319  164.2706 C.3     1  UNL1        0.0615
      3 C         139.0221  137.6619  163.5193 C.3     1  UNL1        0.0175
      4 C         138.4165  139.0342  163.5110 C.3     1  UNL1        0.0175
      5 C         139.3387  139.9523  164.2572 C.3     1  UNL1        0.0615
      6 C         140.4360  140.6282  165.0434 C.3     1  UNL1        0.0595
      7 C         141.5436  139.6995  165.4442 C.3     1  UNL1        0.1686
      8 C         141.4849  138.2513  165.0578 C.3     1  UNL1        0.0595
      9 C         141.6806  139.6669  165.5138 C.3     1  UNL1        0.1375
     10 C         145.1134  142.3418  162.5237 C.3     1  UNL1        0.0725
     11 C         144.5157  141.3096  163.4331 C.ar    1  UNL1        0.1229
     12 C         145.2291  140.1221  164.0084 C.ar    1  UNL1        0.0358
     13 C         144.2539  139.3622  164.8578 C.ar    1  UNL1        0.0371
     14 C         142.9378  140.0801  164.8075 C.ar    1  UNL1        0.1385
     15 O         143.0996  141.2836  163.9270 O.2     1  UNL1       -0.4606
     16 O         142.7101  140.2190  166.2314 O.3     1  UNL1       -0.4791
     17 C         142.5944  140.3933  167.7168 C.ar    1  UNL1        0.1385
     18 C         142.5822  139.1915  168.6143 C.ar    1  UNL1        0.0369
     19 C         142.4666  139.3658  170.0996 C.ar    1  UNL1        0.0033
     20 C         142.3632  140.7419  170.6874 C.ar    1  UNL1        0.0047
     21 C         142.3754  141.9437  169.7899 C.ar    1  UNL1        0.0561
     22 C         142.4911  141.7694  168.3046 C.ar    1  UNL1        0.0414
     23 C         142.2720  143.3198  170.3778 C.2     1  UNL1        0.2428
     24 N         143.4162  143.8873  171.1645 N.am    1  UNL1       -0.3253
     25 O         141.0244  144.1286  170.1790 O.2     1  UNL1       -0.2704
     26 H         144.2350  143.3565  171.2951 H       1  UNL1        0.1453
     27 H         143.3483  144.7905  171.5504 H       1  UNL1        0.1453
@<TRIPOS>BOND
     1    10    11    1
     2    11    12   ar
     3    12    13   ar
     4    13    14   ar
     5    14     9    1
     6     9     1    1
     7     1     2    1
     8     2     3    1
     9     3     4    1
    10     5     4    1
    11     5     6    1
    12     6     7    1
    13     7    16    1
    14    16    17    1
    15    17    18   ar
    16    18    19   ar
    17    19    20   ar
    18    20    21   ar
    19    21    23    1
    20    23    24   am
    21    23    25    2
    22    21    22   ar
    23     7     8    1
    24    14    15   ar
    25    15    11   ar
    26     5     1    1
    27    22    17   ar
    28     8     2    1
    29    24    26    1
    30    24    27    1
@<TRIPOS>MOLECULE
*****
 27 30 0 0 0
SMALL
GASTEIGER

@<TRIPOS>ATOM
      1 N         142.5679  143.1418  164.8450 N.3     1  UNL1       -0.2687
      2 C         143.9025  143.8181  164.7382 C.3     1  UNL1        0.0615
      3 C         143.6990  145.1410  164.0613 C.3     1  UNL1        0.0175
      4 C         142.2385  145.2824  163.7497 C.3     1  UNL1        0.0175
      5 C         141.5394  144.0468  164.2341 C.3     1  UNL1        0.0615
      6 C         141.1125  142.7178  164.8091 C.3     1  UNL1        0.0595
      7 C         142.2470  141.9228  165.3842 C.3     1  UNL1        0.1686
      8 C         143.6421  142.4729  165.3488 C.3     1  UNL1        0.0595
      9 C         142.3074  141.7966  165.4556 C.3     1  UNL1        0.1375
     10 C         140.9503  137.9964  162.0502 C.3     1  UNL1        0.0725
     11 C         141.7270  138.8174  163.0363 C.ar    1  UNL1        0.1229
     12 C         143.1083  138.5181  163.5386 C.ar    1  UNL1        0.0358
     13 C         143.4939  139.5976  164.5060 C.ar    1  UNL1        0.0371
     14 C         142.3509  140.5642  164.6016 C.ar    1  UNL1        0.1385
     15 O         141.2589  140.0820  163.6933 O.2     1  UNL1       -0.4606
     16 O         141.9865  140.5776  165.9948 O.3     1  UNL1       -0.4791
     17 C         141.1226  140.4627  167.2157 C.ar    1  UNL1        0.1385
     18 C         139.7141  139.9616  167.0933 C.ar    1  UNL1        0.0369
     19 C         138.8503  139.8468  168.3141 C.ar    1  UNL1        0.0033
     20 C         139.3949  140.2330  169.6573 C.ar    1  UNL1        0.0047
     21 C         140.8034  140.7341  169.7797 C.ar    1  UNL1        0.0561
     22 C         141.6673  140.8490  168.5588 C.ar    1  UNL1        0.0414
     23 C         141.3480  141.1203  171.1229 C.2     1  UNL1        0.2428
     24 N         142.6228  140.5058  171.6203 N.am    1  UNL1       -0.3253
     25 O         140.6178  142.1210  171.9688 O.2     1  UNL1       -0.2704
     26 H         143.1020  139.8491  171.0651 H       1  UNL1        0.1453
     27 H         142.9802  140.7593  172.5019 H       1  UNL1        0.1453
@<TRIPOS>BOND
     1    10    11    1
     2    11    12   ar
     3    12    13   ar
     4    13    14   ar
     5    14     9    1
     6     9     1    1
     7     1     2    1
     8     2     3    1
     9     3     4    1
    10     5     4    1
    11     5     6    1
    12     6     7    1
    13     7    16    1
    14    16    17    1
    15    17    18   ar
    16    18    19   ar
    17    19    20   ar
    18    20    21   ar
    19    21    23    1
    20    23    24   am
    21    23    25    2
    22    21    22   ar
    23     7     8    1
    24    14    15   ar
    25    15    11   ar
    26     5     1    1
    27    22    17   ar
    28     8     2    1
    29    24    26    1
    30    24    27    1
@<TRIPOS>MOLECULE
*****
 27 30 0 0 0
SMALL
GASTEIGER

@<TRIPOS>ATOM
      1 N         140.7328  143.8335  163.8013 N.3     1  UNL1       -0.2687
      2 C         141.3348  145.1356  163.3631 C.3     1  UNL1        0.0615
      3 C         140.4095  145.7604  162.3615 C.3     1  UNL1        0.0175
      4 C         139.2355  144.8444  162.1806 C.3     1  UNL1        0.0175
      5 C         139.4354  143.6535  163.0704 C.3     1  UNL1        0.0615
      6 C         139.8931  142.5945  164.0442 C.3     1  UNL1        0.0595
      7 C         141.2056  142.9106  164.6981 C.3     1  UNL1        0.1686
      8 C         141.9265  144.1811  164.3575 C.3     1  UNL1        0.0595
      9 C         141.3244  142.8790  164.7957 C.3     1  UNL1        0.1375
     10 C         143.9113  138.9146  162.4565 C.3     1  UNL1        0.0725
     11 C         143.6036  140.1159  163.3002 C.ar    1  UNL1        0.1229
     12 C         144.5805  140.8649  164.1573 C.ar    1  UNL1        0.0358
     13 C         143.8456  141.9911  164.8219 C.ar    1  UNL1        0.0371
     14 C         142.4146  141.9381  164.3754 C.ar    1  UNL1        0.1385
     15 O         142.2650  140.7792  163.4350 O.2     1  UNL1       -0.4606
     16 O         141.7972  141.9559  165.6925 O.3     1  UNL1       -0.4791
     17 C         141.0146  141.5603  166.9096 C.ar    1  UNL1        0.1385
     18 C         140.2486  140.2708  166.9222 C.ar    1  UNL1        0.0369
     19 C         139.4661  139.8752  168.1392 C.ar    1  UNL1        0.0033
     20 C         139.4496  140.7691  169.3436 C.ar    1  UNL1        0.0047
     21 C         140.2157  142.0587  169.3309 C.ar    1  UNL1        0.0561
     22 C         140.9982  142.4543  168.1139 C.ar    1  UNL1        0.0414
     23 C         140.1992  142.9526  170.5353 C.2     1  UNL1        0.2428
     24 N         140.0649  144.4369  170.3659 N.am    1  UNL1       -0.3253
     25 O         140.3171  142.3622  171.9093 O.2     1  UNL1       -0.2704
     26 H         139.9876  144.8245  169.4642 H       1  UNL1        0.1453
     27 H         140.0541  145.0236  171.1564 H       1  UNL1        0.1453
@<TRIPOS>BOND
     1    10    11    1
     2    11    12   ar
     3    12    13   ar
     4    13    14   ar
     5    14     9    1
     6     9     1    1
     7     1     2    1
     8     2     3    1
     9     3     4    1
    10     5     4    1
    11     5     6    1
    12     6     7    1
    13     7    16    1
    14    16    17    1
    15    17    18   ar
    16    18    19   ar
    17    19    20   ar
    18    20    21   ar
    19    21    23    1
    20    23    24   am
    21    23    25    2
    22    21    22   ar
    23     7     8    1
    24    14    15   ar
    25    15    11   ar
    26     5     1    1
    27    22    17   ar
    28     8     2    1
    29    24    26    1
    30    24    27    1
@<TRIPOS>MOLECULE
*****
 27 30 0 0 0
SMALL
GASTEIGER

@<TRIPOS>ATOM
      1 N         139.2152  140.4856  163.9490 N.3     1  UNL1       -0.2687
      2 C         138.5064  139.4041  163.1888 C.3     1  UNL1        0.0615
      3 C         137.7721  140.0441  162.0482 C.3     1  UNL1        0.0175
      4 C         138.0270  141.5212  162.1034 C.3     1  UNL1        0.0175
      5 C         138.9189  141.7941  163.2782 C.3     1  UNL1        0.0615
      6 C         139.8029  141.7695  164.5018 C.3     1  UNL1        0.0595
      7 C         140.0096  140.3937  165.0626 C.3     1  UNL1        0.1686
      8 C         139.3614  139.2110  164.4061 C.3     1  UNL1        0.0595
      9 C         140.0701  140.2925  165.1663 C.3     1  UNL1        0.1375
     10 C         145.1645  140.4748  163.7898 C.3     1  UNL1        0.0725
     11 C         143.8623  140.0254  164.3833 C.ar    1  UNL1        0.1229
     12 C         143.6436  138.7774  165.1863 C.ar    1  UNL1        0.0358
     13 C         142.1964  138.7256  165.5774 C.ar    1  UNL1        0.0371
     14 C         141.5207  139.9415  165.0160 C.ar    1  UNL1        0.1385
     15 O         142.5504  140.7448  164.2781 O.2     1  UNL1       -0.4606
     16 O         140.8646  140.2006  166.2799 O.3     1  UNL1       -0.4791
     17 C         140.3853  140.6826  167.6171 C.ar    1  UNL1        0.1385
     18 C         139.3794  139.8795  168.3873 C.ar    1  UNL1        0.0369
     19 C         138.9002  140.3613  169.7244 C.ar    1  UNL1        0.0033
     20 C         139.4268  141.6463  170.2914 C.ar    1  UNL1        0.0047
     21 C         140.4326  142.4494  169.5212 C.ar    1  UNL1        0.0561
     22 C         140.9119  141.9675  168.1840 C.ar    1  UNL1        0.0414
     23 C         140.9592  143.7344  170.0882 C.2     1  UNL1        0.2428
     24 N         140.0366  144.9003  170.2869 N.am    1  UNL1       -0.3253
     25 O         142.4085  143.8535  170.4565 O.2     1  UNL1       -0.2704
     26 H         139.0854  144.8222  170.0452 H       1  UNL1        0.1453
     27 H         140.3822  145.7437  170.6591 H       1  UNL1        0.1453
@<TRIPOS>BOND
     1    10    11    1
     2    11    12   ar
     3    12    13   ar
     4    13    14   ar
     5    14     9    1
     6     9     1    1
     7     1     2    1
     8     2     3    1
     9     3     4    1
    10     5     4    1
    11     5     6    1
    12     6     7    1
    13     7    16    1
    14    16    17    1
    15    17    18   ar
    16    18    19   ar
    17    19    20   ar
    18    20    21   ar
    19    21    23    1
    20    23    24   am
    21    23    25    2
    22    21    22   ar
    23     7     8    1
    24    14    15   ar
    25    15    11   ar
    26     5     1    1
    27    22    17   ar
    28     8     2    1
    29    24    26    1
    30    24    27    1
