@<TRIPOS>MOLECULE
*****
 32 36 0 0 0
SMALL
GASTEIGER

@<TRIPOS>ATOM
      1 C         140.6326  141.2271  162.5932 C.3     1  UNL1        0.2167
      2 N         141.4832  140.4321  163.5390 N.am    1  UNL1       -0.1358
      3 C         142.5231  139.4929  163.0037 C.2     1  UNL1        0.4243
      4 N         143.3737  138.6978  163.9493 N.2     1  UNL1        0.0275
      5 C         143.1844  138.8420  165.4304 C.2     1  UNL1        0.3991
      6 N         143.8689  138.1944  166.5974 N.2     1  UNL1        0.0826
      7 N         143.2520  138.7333  167.8540 N.2     1  UNL1       -0.0375
      8 C         142.1863  139.7140  167.4635 C.2     1  UNL1        0.1282
      9 C         142.1445  139.7811  165.9657 C.3     1  UNL1        0.2504
     10 C         141.2939  140.5762  165.0199 C.2     1  UNL1        0.3055
     11 O         140.2540  141.5154  165.5552 O.2     1  UNL1       -0.2554
     12 N         142.7124  139.3488  161.5226 N.pl3   1  UNL1       -0.1900
     13 C         143.4542  140.4027  160.7552 C.3     1  UNL1        0.1682
     14 C         143.6434  140.2586  159.2742 C.3     1  UNL1        0.0444
     15 C         143.0909  139.0604  158.5606 C.3     1  UNL1        0.0491
     16 C         142.3491  138.0065  159.3280 C.3     1  UNL1        0.0444
     17 C         142.1599  138.1506  160.8090 C.3     1  UNL1        0.1682
     18 C         142.5976  137.9238  157.7152 C.3     1  UNL1        0.1436
     19 O         143.0085  138.1885  156.2970 O.3     1  UNL1       -0.3523
     20 C         143.7558  139.4888  156.2660 C.3     1  UNL1        0.1576
     21 C         143.8067  140.0277  157.6649 C.3     1  UNL1        0.0833
     22 N         144.4589  141.3088  158.0931 N.3     1  UNL1       -0.3201
     23 H         144.3433  141.4294  159.0993 H       1  UNL1        0.1189
     24 H         144.0240  142.0915  157.6046 H       1  UNL1        0.1189
     25 C         141.3153  140.4910  168.4056 C.ar    1  UNL1        0.0298
     26 C         140.0404  139.8890  168.9176 C.ar    1  UNL1        0.0022
     27 C         139.1693  140.6660  169.8597 C.ar    1  UNL1        0.0010
     28 C         139.5732  142.0450  170.2899 C.ar    1  UNL1        0.0122
     29 C         140.8481  142.6471  169.7780 C.ar    1  UNL1        0.0682
     30 CL        141.2521  144.0261  170.2081 Cl      1  UNL1       -0.0814
     31 C         141.7192  141.8701  168.8359 C.ar    1  UNL1        0.0695
     32 CL        142.9941  142.4722  168.3239 Cl      1  UNL1       -0.0813
@<TRIPOS>BOND
     1     1     2    1
     2     2     3    1
     3     3    12    1
     4    12    13    1
     5    13    14    1
     6    14    15    1
     7    15    16    1
     8    16    17    1
     9    15    18    1
    10    18    19    1
    11    19    20    1
    12    20    21    1
    13    21    22    1
    14     3     4    2
    15     4     5    1
    16     5     6    2
    17     6     7    1
    18     7     8    2
    19     8    25    1
    20    25    26   ar
    21    26    27   ar
    22    27    28   ar
    23    28    29   ar
    24    29    30    1
    25    29    31   ar
    26    31    32    1
    27     8     9    1
    28     9    10    1
    29    10    11    2
    30    10     2   am
    31    17    12    1
    32     9     5    1
    33    21    15    1
    34    31    25   ar
    35    22    23    1
    36    22    24    1
@<TRIPOS>MOLECULE
*****
 32 36 0 0 0
SMALL
GASTEIGER

@<TRIPOS>ATOM
      1 C         139.3888  144.7777  163.0216 C.3     1  UNL1        0.2167
      2 N         140.2716  143.5902  163.2681 N.am    1  UNL1       -0.1358
      3 C         140.9760  142.9284  162.1211 C.2     1  UNL1        0.4243
      4 N         141.8587  141.7409  162.3675 N.2     1  UNL1        0.0275
      5 C         142.0371  141.2153  163.7611 C.2     1  UNL1        0.3991
      6 N         142.8373  140.0703  164.3071 N.2     1  UNL1        0.0826
      7 N         142.6276  140.0244  165.7917 N.2     1  UNL1       -0.0375
      8 C         141.6977  141.1412  166.1631 C.2     1  UNL1        0.1282
      9 C         141.3327  141.8772  164.9082 C.3     1  UNL1        0.2504
     10 C         140.4499  143.0647  164.6617 C.2     1  UNL1        0.3055
     11 O         139.7456  143.7266  165.8087 O.2     1  UNL1       -0.2554
     12 N         140.7976  143.4540  160.7275 N.pl3   1  UNL1       -0.1900
     13 C         141.7319  144.4996  160.1950 C.3     1  UNL1        0.1682
     14 C         141.5535  145.0251  158.8014 C.3     1  UNL1        0.0444
     15 C         140.4407  144.5050  157.9405 C.3     1  UNL1        0.0491
     16 C         139.5064  143.4594  158.4730 C.3     1  UNL1        0.0444
     17 C         139.6848  142.9339  159.8665 C.3     1  UNL1        0.1682
     18 C         139.3797  144.0826  156.9679 C.3     1  UNL1        0.1436
     19 O         139.5752  144.8618  155.7011 O.3     1  UNL1       -0.3523
     20 C         140.7571  145.7658  155.8908 C.3     1  UNL1        0.1576
     21 C         141.2920  145.5453  157.2747 C.3     1  UNL1        0.0833
     22 N         142.4712  146.2426  157.8857 N.3     1  UNL1       -0.3201
     23 H         142.6131  145.9011  158.8363 H       1  UNL1        0.1189
     24 H         142.2980  147.2476  157.9078 H       1  UNL1        0.1189
     25 C         141.2171  141.4650  167.5467 C.ar    1  UNL1        0.0298
     26 C         141.9048  142.5292  168.3495 C.ar    1  UNL1        0.0022
     27 C         141.4243  142.8531  169.7331 C.ar    1  UNL1        0.0010
     28 C         140.2562  142.1128  170.3138 C.ar    1  UNL1        0.0122
     29 C         139.5685  141.0486  169.5110 C.ar    1  UNL1        0.0682
     30 CL        138.4003  140.3082  170.0917 Cl      1  UNL1       -0.0814
     31 C         140.0490  140.7247  168.1274 C.ar    1  UNL1        0.0695
     32 CL        139.3613  139.6605  167.3246 Cl      1  UNL1       -0.0813
@<TRIPOS>BOND
     1     1     2    1
     2     2     3    1
     3     3    12    1
     4    12    13    1
     5    13    14    1
     6    14    15    1
     7    15    16    1
     8    16    17    1
     9    15    18    1
    10    18    19    1
    11    19    20    1
    12    20    21    1
    13    21    22    1
    14     3     4    2
    15     4     5    1
    16     5     6    2
    17     6     7    1
    18     7     8    2
    19     8    25    1
    20    25    26   ar
    21    26    27   ar
    22    27    28   ar
    23    28    29   ar
    24    29    30    1
    25    29    31   ar
    26    31    32    1
    27     8     9    1
    28     9    10    1
    29    10    11    2
    30    10     2   am
    31    17    12    1
    32     9     5    1
    33    21    15    1
    34    31    25   ar
    35    22    23    1
    36    22    24    1
@<TRIPOS>MOLECULE
*****
 32 36 0 0 0
SMALL
GASTEIGER

@<TRIPOS>ATOM
      1 C         142.7525  142.1342  164.6664 C.3     1  UNL1        0.2167
      2 N         141.4315  142.2884  163.9725 N.am    1  UNL1       -0.1358
      3 C         140.1568  142.2007  164.7583 C.2     1  UNL1        0.4243
      4 N         138.8359  142.3549  164.0646 N.2     1  UNL1        0.0275
      5 C         138.7897  142.5969  162.5849 C.2     1  UNL1        0.3991
      6 N         137.6451  142.7874  161.6343 N.2     1  UNL1        0.0826
      7 N         138.2124  142.9928  160.2610 N.2     1  UNL1       -0.0375
      8 C         139.7076  142.9293  160.3629 C.2     1  UNL1        0.1282
      9 C         140.0643  142.6847  161.7991 C.3     1  UNL1        0.2504
     10 C         141.3853  142.5304  162.4929 C.2     1  UNL1        0.3055
     11 O         142.6600  142.6182  161.7071 O.2     1  UNL1       -0.2554
     12 N         140.2031  141.9587  166.2380 N.pl3   1  UNL1       -0.1900
     13 C         140.4516  143.1013  167.1774 C.3     1  UNL1        0.1682
     14 C         140.4979  142.8593  168.6570 C.3     1  UNL1        0.0444
     15 C         140.2956  141.4746  169.1972 C.3     1  UNL1        0.0491
     16 C         140.0471  140.3320  168.2578 C.3     1  UNL1        0.0444
     17 C         140.0009  140.5740  166.7782 C.3     1  UNL1        0.1682
     18 C         140.1123  140.1519  169.8804 C.3     1  UNL1        0.1436
     19 O         140.2367  140.3726  171.3589 O.3     1  UNL1       -0.3523
     20 C         140.4970  141.8318  171.5894 C.3     1  UNL1        0.1576
     21 C         140.5334  142.5129  170.2535 C.3     1  UNL1        0.0833
     22 N         140.7666  143.9753  170.0154 N.3     1  UNL1       -0.3201
     23 H         140.7397  144.1653  169.0137 H       1  UNL1        0.1189
     24 H         141.6791  144.2390  170.3871 H       1  UNL1        0.1189
     25 C         140.6759  143.0835  159.2277 C.ar    1  UNL1        0.0298
     26 C         141.3141  141.8714  158.6165 C.ar    1  UNL1        0.0022
     27 C         142.2824  142.0255  157.4813 C.ar    1  UNL1        0.0010
     28 C         142.6126  143.3916  156.9574 C.ar    1  UNL1        0.0122
     29 C         141.9744  144.6037  157.5686 C.ar    1  UNL1        0.0682
     30 CL        142.3045  145.9699  157.0447 Cl      1  UNL1       -0.0814
     31 C         141.0061  144.4497  158.7037 C.ar    1  UNL1        0.0695
     32 CL        140.3679  145.6618  159.3149 Cl      1  UNL1       -0.0813
@<TRIPOS>BOND
     1     1     2    1
     2     2     3    1
     3     3    12    1
     4    12    13    1
     5    13    14    1
     6    14    15    1
     7    15    16    1
     8    16    17    1
     9    15    18    1
    10    18    19    1
    11    19    20    1
    12    20    21    1
    13    21    22    1
    14     3     4    2
    15     4     5    1
    16     5     6    2
    17     6     7    1
    18     7     8    2
    19     8    25    1
    20    25    26   ar
    21    26    27   ar
    22    27    28   ar
    23    28    29   ar
    24    29    30    1
    25    29    31   ar
    26    31    32    1
    27     8     9    1
    28     9    10    1
    29    10    11    2
    30    10     2   am
    31    17    12    1
    32     9     5    1
    33    21    15    1
    34    31    25   ar
    35    22    23    1
    36    22    24    1
@<TRIPOS>MOLECULE
*****
 32 36 0 0 0
SMALL
GASTEIGER

@<TRIPOS>ATOM
      1 C         144.0095  139.7377  161.7671 C.3     1  UNL1        0.2167
      2 N         142.7367  140.5279  161.6922 N.am    1  UNL1       -0.1358
      3 C         142.4020  141.2945  160.4471 C.2     1  UNL1        0.4243
      4 N         141.1293  142.0847  160.3722 N.2     1  UNL1        0.0275
      5 C         140.1911  142.1083  161.5424 C.2     1  UNL1        0.3991
      6 N         138.8738  142.7920  161.7591 N.2     1  UNL1        0.0826
      7 N         138.3942  142.4480  163.1380 N.2     1  UNL1       -0.0375
      8 C         139.4152  141.5516  163.7736 C.2     1  UNL1        0.1282
      9 C         140.5257  141.3417  162.7875 C.3     1  UNL1        0.2504
     10 C         141.7986  140.5515  162.8624 C.2     1  UNL1        0.3055
     11 O         142.1332  139.7849  164.1075 O.2     1  UNL1       -0.2554
     12 N         143.3402  141.2710  159.2769 N.pl3   1  UNL1       -0.1900
     13 C         144.4624  142.2629  159.1952 C.3     1  UNL1        0.1682
     14 C         145.4005  142.2392  158.0250 C.3     1  UNL1        0.0444
     15 C         145.2164  141.2237  156.9366 C.3     1  UNL1        0.0491
     16 C         144.0942  140.2318  157.0183 C.3     1  UNL1        0.0444
     17 C         143.1561  140.2554  158.1884 C.3     1  UNL1        0.1682
     18 C         145.1577  140.2721  155.7785 C.3     1  UNL1        0.1436
     19 O         146.2830  140.6078  154.8451 O.3     1  UNL1       -0.3523
     20 C         147.0372  141.7669  155.4264 C.3     1  UNL1        0.1576
     21 C         146.3781  142.1475  156.7189 C.3     1  UNL1        0.0833
     22 N         146.8054  143.2571  157.6334 N.3     1  UNL1       -0.3201
     23 H         146.1808  143.2933  158.4390 H       1  UNL1        0.1189
     24 H         146.7660  144.1447  157.1324 H       1  UNL1        0.1189
     25 C         139.3390  140.9677  165.1533 C.ar    1  UNL1        0.0298
     26 C         138.5484  139.7162  165.3953 C.ar    1  UNL1        0.0022
     27 C         138.4721  139.1322  166.7748 C.ar    1  UNL1        0.0010
     28 C         139.1864  139.7998  167.9124 C.ar    1  UNL1        0.0122
     29 C         139.9770  141.0514  167.6704 C.ar    1  UNL1        0.0682
     30 CL        140.6913  141.7190  168.8079 Cl      1  UNL1       -0.0814
     31 C         140.0533  141.6353  166.2908 C.ar    1  UNL1        0.0695
     32 CL        140.8438  142.8869  166.0488 Cl      1  UNL1       -0.0813
@<TRIPOS>BOND
     1     1     2    1
     2     2     3    1
     3     3    12    1
     4    12    13    1
     5    13    14    1
     6    14    15    1
     7    15    16    1
     8    16    17    1
     9    15    18    1
    10    18    19    1
    11    19    20    1
    12    20    21    1
    13    21    22    1
    14     3     4    2
    15     4     5    1
    16     5     6    2
    17     6     7    1
    18     7     8    2
    19     8    25    1
    20    25    26   ar
    21    26    27   ar
    22    27    28   ar
    23    28    29   ar
    24    29    30    1
    25    29    31   ar
    26    31    32    1
    27     8     9    1
    28     9    10    1
    29    10    11    2
    30    10     2   am
    31    17    12    1
    32     9     5    1
    33    21    15    1
    34    31    25   ar
    35    22    23    1
    36    22    24    1
@<TRIPOS>MOLECULE
*****
 32 36 0 0 0
SMALL
GASTEIGER

@<TRIPOS>ATOM
      1 C         141.8850  141.7813  162.5595 C.3     1  UNL1        0.2167
      2 N         141.0183  140.9937  163.4969 N.am    1  UNL1       -0.1358
      3 C         140.1304  139.9084  162.9642 C.2     1  UNL1        0.4243
      4 N         139.2637  139.1209  163.9014 N.2     1  UNL1        0.0275
      5 C         139.2848  139.4186  165.3715 C.2     1  UNL1        0.3991
      6 N         138.5462  138.8143  166.5286 N.2     1  UNL1        0.0826
      7 N         138.9775  139.5261  167.7765 N.2     1  UNL1       -0.0375
      8 C         139.9828  140.5703  167.3905 C.2     1  UNL1        0.1282
      9 C         140.1727  140.5039  165.9042 C.3     1  UNL1        0.2504
     10 C         141.0394  141.2915  164.9668 C.2     1  UNL1        0.3055
     11 O         141.9273  142.3768  165.4995 O.2     1  UNL1       -0.2554
     12 N         140.1093  139.6107  161.4941 N.pl3   1  UNL1       -0.1900
     13 C         139.0126  140.1631  160.6327 C.3     1  UNL1        0.1682
     14 C         138.9915  139.8654  159.1627 C.3     1  UNL1        0.0444
     15 C         140.0671  139.0152  158.5542 C.3     1  UNL1        0.0491
     16 C         141.1638  138.4627  159.4156 C.3     1  UNL1        0.0444
     17 C         141.1848  138.7605  160.8856 C.3     1  UNL1        0.1682
     18 C         141.0693  138.1850  157.8082 C.3     1  UNL1        0.1436
     19 O         140.6617  138.1521  156.3650 O.3     1  UNL1       -0.3523
     20 C         139.4075  138.9619  156.2190 C.3     1  UNL1        0.1576
     21 C         139.0400  139.4953  157.5719 C.3     1  UNL1        0.0833
     22 N         137.8538  140.3575  157.8873 N.3     1  UNL1       -0.3201
     23 H         137.8463  140.5740  158.8841 H       1  UNL1        0.1189
     24 H         136.9976  139.8611  157.6408 H       1  UNL1        0.1189
     25 C         140.6763  141.5151  168.3267 C.ar    1  UNL1        0.0298
     26 C         139.9590  142.7318  168.8319 C.ar    1  UNL1        0.0022
     27 C         140.6524  143.6766  169.7681 C.ar    1  UNL1        0.0010
     28 C         142.0632  143.4048  170.1991 C.ar    1  UNL1        0.0122
     29 C         142.7805  142.1881  169.6939 C.ar    1  UNL1        0.0682
     30 CL        144.1913  141.9163  170.1249 Cl      1  UNL1       -0.0814
     31 C         142.0871  141.2433  168.7577 C.ar    1  UNL1        0.0695
     32 CL        142.8044  140.0267  168.2526 Cl      1  UNL1       -0.0813
@<TRIPOS>BOND
     1     1     2    1
     2     2     3    1
     3     3    12    1
     4    12    13    1
     5    13    14    1
     6    14    15    1
     7    15    16    1
     8    16    17    1
     9    15    18    1
    10    18    19    1
    11    19    20    1
    12    20    21    1
    13    21    22    1
    14     3     4    2
    15     4     5    1
    16     5     6    2
    17     6     7    1
    18     7     8    2
    19     8    25    1
    20    25    26   ar
    21    26    27   ar
    22    27    28   ar
    23    28    29   ar
    24    29    30    1
    25    29    31   ar
    26    31    32    1
    27     8     9    1
    28     9    10    1
    29    10    11    2
    30    10     2   am
    31    17    12    1
    32     9     5    1
    33    21    15    1
    34    31    25   ar
    35    22    23    1
    36    22    24    1
@<TRIPOS>MOLECULE
*****
 32 36 0 0 0
SMALL
GASTEIGER

@<TRIPOS>ATOM
      1 C         142.2954  140.8712  163.0591 C.3     1  UNL1        0.2167
      2 N         141.5522  142.1689  162.9418 N.am    1  UNL1       -0.1358
      3 C         140.9988  142.8298  164.1693 C.2     1  UNL1        0.4243
      4 N         140.2556  144.1275  164.0521 N.2     1  UNL1        0.0275
      5 C         140.0658  144.7642  162.7072 C.2     1  UNL1        0.3991
      6 N         139.3825  146.0305  162.2837 N.2     1  UNL1        0.0826
      7 N         139.5135  146.1522  160.7944 N.2     1  UNL1       -0.0375
      8 C         140.2779  144.9611  160.2975 C.2     1  UNL1        0.1282
      9 C         140.6191  144.1032  161.4796 C.3     1  UNL1        0.2504
     10 C         141.3624  142.8055  161.5969 C.2     1  UNL1        0.3055
     11 O         141.9158  142.1446  160.3694 O.2     1  UNL1       -0.2554
     12 N         141.1886  142.1931  165.5142 N.pl3   1  UNL1       -0.1900
     13 C         140.0841  141.3804  166.1219 C.3     1  UNL1        0.1682
     14 C         140.2739  140.7437  167.4667 C.3     1  UNL1        0.0444
     15 C         141.5684  140.9198  168.2038 C.3     1  UNL1        0.0491
     16 C         142.6730  141.7325  167.5961 C.3     1  UNL1        0.0444
     17 C         142.4831  142.3692  166.2513 C.3     1  UNL1        0.1682
     18 C         142.8006  141.0074  169.0547 C.3     1  UNL1        0.1436
     19 O         142.5531  140.2254  170.3107 O.3     1  UNL1       -0.3523
     20 C         141.1680  139.6545  170.2360 C.3     1  UNL1        0.1576
     21 C         140.5594  140.0836  168.9339 C.3     1  UNL1        0.0833
     22 N         139.1835  139.7375  168.4472 N.3     1  UNL1       -0.3201
     23 H         139.0303  140.1603  167.5317 H       1  UNL1        0.1189
     24 H         138.4904  140.0926  169.1060 H       1  UNL1        0.1189
     25 C         140.6377  144.6776  158.8691 C.ar    1  UNL1        0.0298
     26 C         141.7732  145.4133  158.2216 C.ar    1  UNL1        0.0022
     27 C         142.1331  145.1299  156.7933 C.ar    1  UNL1        0.0010
     28 C         141.3574  144.1108  156.0124 C.ar    1  UNL1        0.0122
     29 C         140.2219  143.3751  156.6599 C.ar    1  UNL1        0.0682
     30 CL        139.4462  142.3561  155.8791 Cl      1  UNL1       -0.0814
     31 C         139.8620  143.6585  158.0882 C.ar    1  UNL1        0.0695
     32 CL        138.7264  142.9228  158.7357 Cl      1  UNL1       -0.0813
@<TRIPOS>BOND
     1     1     2    1
     2     2     3    1
     3     3    12    1
     4    12    13    1
     5    13    14    1
     6    14    15    1
     7    15    16    1
     8    16    17    1
     9    15    18    1
    10    18    19    1
    11    19    20    1
    12    20    21    1
    13    21    22    1
    14     3     4    2
    15     4     5    1
    16     5     6    2
    17     6     7    1
    18     7     8    2
    19     8    25    1
    20    25    26   ar
    21    26    27   ar
    22    27    28   ar
    23    28    29   ar
    24    29    30    1
    25    29    31   ar
    26    31    32    1
    27     8     9    1
    28     9    10    1
    29    10    11    2
    30    10     2   am
    31    17    12    1
    32     9     5    1
    33    21    15    1
    34    31    25   ar
    35    22    23    1
    36    22    24    1
@<TRIPOS>MOLECULE
*****
 32 36 0 0 0
SMALL
GASTEIGER

@<TRIPOS>ATOM
      1 C         139.5547  144.7167  163.3086 C.3     1  UNL1        0.2167
      2 N         140.2271  143.3809  163.4252 N.am    1  UNL1       -0.1358
      3 C         140.7760  142.7083  162.2019 C.2     1  UNL1        0.4243
      4 N         141.4484  141.3725  162.3184 N.2     1  UNL1        0.0275
      5 C         141.5719  140.7093  163.6582 C.2     1  UNL1        0.3991
      6 N         142.1785  139.4039  164.0798 N.2     1  UNL1        0.0826
      7 N         142.0046  139.2697  165.5636 N.2     1  UNL1       -0.0375
      8 C         141.2904  140.4922  166.0590 C.2     1  UNL1        0.1282
      9 C         141.0230  141.3819  164.8815 C.3     1  UNL1        0.2504
     10 C         140.3506  142.7177  164.7649 C.2     1  UNL1        0.3055
     11 O         139.8017  143.3903  165.9881 O.2     1  UNL1       -0.2554
     12 N         140.6525  143.3715  160.8621 N.pl3   1  UNL1       -0.1900
     13 C         139.6703  142.8508  159.8552 C.3     1  UNL1        0.1682
     14 C         139.5468  143.5140  158.5155 C.3     1  UNL1        0.0444
     15 C         140.4056  144.6979  158.1827 C.3     1  UNL1        0.0491
     16 C         141.3879  145.2187  159.1897 C.3     1  UNL1        0.0444
     17 C         141.5113  144.5555  160.5294 C.3     1  UNL1        0.1682
     18 C         141.1930  145.8840  157.7102 C.3     1  UNL1        0.1436
     19 O         140.7471  146.2107  156.3156 O.3     1  UNL1       -0.3523
     20 C         139.6841  145.2264  155.9264 C.3     1  UNL1        0.1576
     21 C         139.4731  144.2915  157.0803 C.3     1  UNL1        0.0833
     22 N         138.5004  143.1506  157.1241 N.3     1  UNL1       -0.3201
     23 H         138.5658  142.6826  158.0281 H       1  UNL1        0.1189
     24 H         138.7206  142.4873  156.3811 H       1  UNL1        0.1189
     25 C         140.9103  140.7752  167.4823 C.ar    1  UNL1        0.0298
     26 C         139.6703  140.1630  168.0633 C.ar    1  UNL1        0.0022
     27 C         139.2902  140.4459  169.4864 C.ar    1  UNL1        0.0010
     28 C         140.1501  141.3411  170.3286 C.ar    1  UNL1        0.0122
     29 C         141.3901  141.9532  169.7476 C.ar    1  UNL1        0.0682
     30 CL        142.2501  142.8484  170.5898 Cl      1  UNL1       -0.0814
     31 C         141.7702  141.6703  168.3244 C.ar    1  UNL1        0.0695
     32 CL        143.0102  142.2825  167.7435 Cl      1  UNL1       -0.0813
@<TRIPOS>BOND
     1     1     2    1
     2     2     3    1
     3     3    12    1
     4    12    13    1
     5    13    14    1
     6    14    15    1
     7    15    16    1
     8    16    17    1
     9    15    18    1
    10    18    19    1
    11    19    20    1
    12    20    21    1
    13    21    22    1
    14     3     4    2
    15     4     5    1
    16     5     6    2
    17     6     7    1
    18     7     8    2
    19     8    25    1
    20    25    26   ar
    21    26    27   ar
    22    27    28   ar
    23    28    29   ar
    24    29    30    1
    25    29    31   ar
    26    31    32    1
    27     8     9    1
    28     9    10    1
    29    10    11    2
    30    10     2   am
    31    17    12    1
    32     9     5    1
    33    21    15    1
    34    31    25   ar
    35    22    23    1
    36    22    24    1
@<TRIPOS>MOLECULE
*****
 32 36 0 0 0
SMALL
GASTEIGER

@<TRIPOS>ATOM
      1 C         140.2761  141.9742  160.2296 C.3     1  UNL1        0.2167
      2 N         141.2370  142.7276  161.1008 N.am    1  UNL1       -0.1358
      3 C         141.9166  143.9585  160.5781 C.2     1  UNL1        0.4243
      4 N         142.8775  144.7119  161.4492 N.2     1  UNL1        0.0275
      5 C         143.1589  144.2345  162.8432 C.2     1  UNL1        0.3991
      6 N         144.0510  144.7664  163.9253 N.2     1  UNL1        0.0826
      7 N         143.9229  143.8644  165.1168 N.2     1  UNL1       -0.0375
      8 C         142.9515  142.7749  164.7710 C.2     1  UNL1        0.1282
      9 C         142.4794  143.0037  163.3659 C.3     1  UNL1        0.2504
     10 C         141.5184  142.2502  162.4947 C.2     1  UNL1        0.3055
     11 O         140.8389  141.0194  163.0174 O.2     1  UNL1       -0.2554
     12 N         141.6351  144.4359  159.1842 N.pl3   1  UNL1       -0.1900
     13 C         140.6587  145.5515  158.9563 C.3     1  UNL1        0.1682
     14 C         140.3773  146.0288  157.5624 C.3     1  UNL1        0.0444
     15 C         141.0723  145.3905  156.3964 C.3     1  UNL1        0.0491
     16 C         142.0488  144.2749  156.6243 C.3     1  UNL1        0.0444
     17 C         142.3302  143.7976  158.0182 C.3     1  UNL1        0.1682
     18 C         141.6877  144.8519  155.1389 C.3     1  UNL1        0.1436
     19 O         141.1218  145.6188  153.9805 O.3     1  UNL1       -0.3523
     20 C         140.1567  146.6315  154.5222 C.3     1  UNL1        0.1576
     21 C         140.1262  146.4904  156.0152 C.3     1  UNL1        0.0833
     22 N         139.2953  147.3058  156.9611 N.3     1  UNL1       -0.3201
     23 H         139.4698  146.9990  157.9181 H       1  UNL1        0.1189
     24 H         138.3075  147.1822  156.7392 H       1  UNL1        0.1189
     25 C         142.5269  141.6536  165.6724 C.ar    1  UNL1        0.0298
     26 C         141.3737  141.8428  166.6127 C.ar    1  UNL1        0.0022
     27 C         140.9490  140.7215  167.5140 C.ar    1  UNL1        0.0010
     28 C         141.6776  139.4110  167.4750 C.ar    1  UNL1        0.0122
     29 C         142.8309  139.2217  166.5347 C.ar    1  UNL1        0.0682
     30 CL        143.5596  137.9112  166.4957 Cl      1  UNL1       -0.0814
     31 C         143.2556  140.3430  165.6334 C.ar    1  UNL1        0.0695
     32 CL        144.4088  140.1537  164.6931 Cl      1  UNL1       -0.0813
@<TRIPOS>BOND
     1     1     2    1
     2     2     3    1
     3     3    12    1
     4    12    13    1
     5    13    14    1
     6    14    15    1
     7    15    16    1
     8    16    17    1
     9    15    18    1
    10    18    19    1
    11    19    20    1
    12    20    21    1
    13    21    22    1
    14     3     4    2
    15     4     5    1
    16     5     6    2
    17     6     7    1
    18     7     8    2
    19     8    25    1
    20    25    26   ar
    21    26    27   ar
    22    27    28   ar
    23    28    29   ar
    24    29    30    1
    25    29    31   ar
    26    31    32    1
    27     8     9    1
    28     9    10    1
    29    10    11    2
    30    10     2   am
    31    17    12    1
    32     9     5    1
    33    21    15    1
    34    31    25   ar
    35    22    23    1
    36    22    24    1
@<TRIPOS>MOLECULE
*****
 32 36 0 0 0
SMALL
GASTEIGER

@<TRIPOS>ATOM
      1 C         140.1378  140.0399  164.6855 C.3     1  UNL1        0.2167
      2 N         141.0062  141.0970  164.0702 N.am    1  UNL1       -0.1358
      3 C         141.7210  142.0835  164.9454 C.2     1  UNL1        0.4243
      4 N         142.5893  143.1406  164.3302 N.2     1  UNL1        0.0275
      5 C         142.7428  143.2113  162.8397 C.2     1  UNL1        0.3991
      6 N         143.5246  144.1354  161.9539 N.2     1  UNL1        0.0826
      7 N         143.2930  143.7201  160.5313 N.2     1  UNL1       -0.0375
      8 C         142.3679  142.5394  160.5379 C.2     1  UNL1        0.1282
      9 C         142.0279  142.2249  161.9645 C.3     1  UNL1        0.2504
     10 C         141.1596  141.1677  162.5798 C.2     1  UNL1        0.3055
     11 O         140.4447  140.1813  161.7046 O.2     1  UNL1       -0.2554
     12 N         141.5676  142.0127  166.4359 N.pl3   1  UNL1       -0.1900
     13 C         142.4464  141.0992  167.2378 C.3     1  UNL1        0.1682
     14 C         142.2929  141.0285  168.7282 C.3     1  UNL1        0.0444
     15 C         141.2607  141.8713  169.4168 C.3     1  UNL1        0.0491
     16 C         140.3819  142.7849  168.6149 C.3     1  UNL1        0.0444
     17 C         140.5354  142.8556  167.1244 C.3     1  UNL1        0.1682
     18 C         140.2778  142.6501  170.2399 C.3     1  UNL1        0.1436
     19 O         140.4729  142.2695  171.6777 O.3     1  UNL1       -0.3523
     20 C         141.5762  141.2554  171.7431 C.3     1  UNL1        0.1576
     21 C         142.0631  141.0093  170.3459 C.3     1  UNL1        0.0833
     22 N         143.1599  140.0668  169.9475 N.3     1  UNL1       -0.3201
     23 H         143.2834  140.0972  168.9355 H       1  UNL1        0.1189
     24 H         142.9133  139.1187  170.2316 H       1  UNL1        0.1189
     25 C         141.8704  141.8025  159.3298 C.ar    1  UNL1        0.0298
     26 C         140.6610  142.2986  158.5941 C.ar    1  UNL1        0.0022
     27 C         140.1634  141.5618  157.3860 C.ar    1  UNL1        0.0010
     28 C         140.8751  140.3288  156.9136 C.ar    1  UNL1        0.0122
     29 C         142.0844  139.8327  157.6493 C.ar    1  UNL1        0.0682
     30 CL        142.7962  138.5997  157.1769 Cl      1  UNL1       -0.0814
     31 C         142.5821  140.5695  158.8574 C.ar    1  UNL1        0.0695
     32 CL        143.7914  140.0733  159.5930 Cl      1  UNL1       -0.0813
@<TRIPOS>BOND
     1     1     2    1
     2     2     3    1
     3     3    12    1
     4    12    13    1
     5    13    14    1
     6    14    15    1
     7    15    16    1
     8    16    17    1
     9    15    18    1
    10    18    19    1
    11    19    20    1
    12    20    21    1
    13    21    22    1
    14     3     4    2
    15     4     5    1
    16     5     6    2
    17     6     7    1
    18     7     8    2
    19     8    25    1
    20    25    26   ar
    21    26    27   ar
    22    27    28   ar
    23    28    29   ar
    24    29    30    1
    25    29    31   ar
    26    31    32    1
    27     8     9    1
    28     9    10    1
    29    10    11    2
    30    10     2   am
    31    17    12    1
    32     9     5    1
    33    21    15    1
    34    31    25   ar
    35    22    23    1
    36    22    24    1
