@<TRIPOS>MOLECULE
*****
 45 48 0 0 0
SMALL
GASTEIGER

@<TRIPOS>ATOM
      1 C         139.0980  139.4628  160.8913 C.2     1  UNL1        0.2302
      2 O         138.1619  138.6164  161.7021 O.2     1  UNL1       -0.2745
      3 N         139.9917  140.4562  161.5727 N.am    1  UNL1       -0.2582
      4 C         139.9493  140.6032  163.0650 C.ar    1  UNL1        0.0828
      5 C         140.9805  139.9224  163.9152 C.ar    1  UNL1        0.0352
      6 C         140.9381  140.0693  165.4074 C.ar    1  UNL1        0.0895
      7 C         139.8644  140.8972  166.0492 C.ar    1  UNL1        0.1547
      8 C         138.8333  141.5781  165.1990 C.ar    1  UNL1        0.0691
      9 C         138.8757  141.4311  163.7068 C.ar    1  UNL1        0.1568
     10 F         137.8445  142.1119  162.8565 F       1  UNL1       -0.2027
     11 O         139.8221  141.0442  167.5415 O.3     1  UNL1       -0.4726
     12 C         140.8532  140.3633  168.3918 C.3     1  UNL1        0.2012
     13 C         141.6019  139.9160  169.6122 C.3     1  UNL1        0.0532
     14 C         140.0396  141.0358  169.4574 C.3     1  UNL1        0.0532
     15 C         141.9269  139.5355  167.7499 C.2     1  UNL1        0.2656
     16 O         142.9581  138.8546  168.6003 O.2     1  UNL1       -0.2708
     17 N         141.9693  139.3885  166.2578 N.am    1  UNL1       -0.2531
     18 C         143.0429  138.5606  165.6159 C.3     1  UNL1        0.1010
     19 C         144.3880  139.1629  165.3364 C.3     1  UNL1        0.0539
     20 C         144.7053  139.6867  163.9671 C.3     1  UNL1        0.1440
     21 O         145.6483  140.8420  163.8060 O.3     1  UNL1       -0.3510
     22 C         145.3052  141.9659  162.8737 C.3     1  UNL1        0.1741
     23 C         140.0981  138.1604  157.2783 C.3     1  UNL1        0.0927
     24 C         139.2250  139.0218  156.4148 C.3     1  UNL1        0.0777
     25 N         138.3096  140.0302  157.0434 N.3     1  UNL1       -0.2967
     26 C         138.2673  140.1772  158.5355 C.3     1  UNL1        0.0777
     27 C         139.1404  139.3158  159.3991 C.3     1  UNL1        0.0932
     28 C         140.0558  138.3074  158.7705 C.3     1  UNL1        0.0210
     29 H         137.3632  139.7960  156.7436 H       1  UNL1        0.1233
     30 N         142.3605  136.8834  157.2525 N.am    1  UNL1       -0.3035
     31 C         141.0135  137.1520  156.6497 C.2     1  UNL1        0.2234
     32 O         140.5819  136.4123  155.4181 O.2     1  UNL1       -0.2751
     33 H         142.6437  137.3689  158.0608 H       1  UNL1        0.1495
     34 C         143.2759  135.8750  156.6239 C.3     1  UNL1        0.1011
     35 C         144.1323  136.2649  155.4559 C.3     1  UNL1        0.1615
     36 O         145.0182  137.4721  155.5453 O.3     1  UNL1       -0.3520
     37 C         143.2964  138.8850  154.2076 C.3     1  UNL1        0.0346
     38 C         144.6731  138.7141  154.7781 C.3     1  UNL1        0.1423
     39 C         143.3348  134.4766  157.1633 C.3     1  UNL1        0.0221
     40 C         143.1255  133.3091  156.2451 C.3     1  UNL1        0.0017
     41 C         144.2566  132.3652  155.9622 C.3     1  UNL1        0.0001
     42 C         141.7853  133.0854  155.6098 C.3     1  UNL1        0.0001
     43 C         140.9278  141.3027  160.7620 C.3     1  UNL1        0.0800
     44 C         142.0930  141.4181  159.8246 C.3     1  UNL1        0.0219
     45 C         141.3839  142.6532  160.2953 C.3     1  UNL1        0.0219
@<TRIPOS>BOND
     1    37    38    1
     2    38    36    1
     3    36    35    1
     4    34    35    1
     5    34    39    1
     6    39    40    1
     7    40    41    1
     8    40    42    1
     9    34    30    1
    10    30    31   am
    11    31    32    2
    12    23    31    1
    13    23    24    1
    14    24    25    1
    15    25    26    1
    16    26    27    1
    17    27     1    1
    18     1     2    2
    19     1     3   am
    20     3     4    1
    21     4     5   ar
    22     5     6   ar
    23     6     7   ar
    24     7     8   ar
    25     8     9   ar
    26     9    10    1
    27     7    11    1
    28    11    12    1
    29    12    13    1
    30    12    14    1
    31    12    15    1
    32    15    16    2
    33    15    17   am
    34    17    18    1
    35    18    19    1
    36    19    20    1
    37    20    21    1
    38    21    22    1
    39     3    43    1
    40    43    44    1
    41    44    45    1
    42    27    28    1
    43    28    23    1
    44     9     4   ar
    45    45    43    1
    46    17     6    1
    47    30    33    1
    48    25    29    1
@<TRIPOS>MOLECULE
*****
 45 48 0 0 0
SMALL
GASTEIGER

@<TRIPOS>ATOM
      1 C         143.7314  141.3878  161.3459 C.2     1  UNL1        0.2302
      2 O         144.7162  140.7630  162.2892 O.2     1  UNL1       -0.2745
      3 N         142.4620  141.9865  161.8752 N.am    1  UNL1       -0.2582
      4 C         142.1774  141.9604  163.3478 C.ar    1  UNL1        0.0828
      5 C         141.1219  141.0438  163.8915 C.ar    1  UNL1        0.0352
      6 C         140.8374  141.0177  165.3640 C.ar    1  UNL1        0.0895
      7 C         141.6084  141.9082  166.2928 C.ar    1  UNL1        0.1547
      8 C         142.6639  142.8248  165.7490 C.ar    1  UNL1        0.0691
      9 C         142.9484  142.8509  164.2765 C.ar    1  UNL1        0.1568
     10 F         144.0040  143.7675  163.7327 F       1  UNL1       -0.2027
     11 O         141.3239  141.8821  167.7654 O.3     1  UNL1       -0.4726
     12 C         140.2684  140.9655  168.3091 C.3     1  UNL1        0.2012
     13 C         139.3725  140.2748  169.2943 C.3     1  UNL1        0.0532
     14 C         140.7282  141.6161  169.5800 C.3     1  UNL1        0.0532
     15 C         139.4973  140.0750  167.3804 C.2     1  UNL1        0.2656
     16 O         138.4418  139.1584  167.9242 O.2     1  UNL1       -0.2708
     17 N         139.7818  140.1011  165.9079 N.am    1  UNL1       -0.2531
     18 C         139.0108  139.2106  164.9791 C.3     1  UNL1        0.1010
     19 C         139.3661  137.7576  164.8660 C.3     1  UNL1        0.0539
     20 C         140.7117  137.3532  164.3408 C.3     1  UNL1        0.1440
     21 O         140.8666  136.9536  162.9033 O.3     1  UNL1       -0.3510
     22 C         140.6607  137.9670  161.8168 C.3     1  UNL1        0.1741
     23 C         143.8884  140.2853  157.5367 C.3     1  UNL1        0.0927
     24 C         144.5852  141.4661  156.9283 C.3     1  UNL1        0.0777
     25 N         144.9973  142.6209  157.7925 N.3     1  UNL1       -0.2967
     26 C         144.7127  142.5948  159.2650 C.3     1  UNL1        0.0777
     27 C         144.0160  141.4139  159.8734 C.3     1  UNL1        0.0932
     28 C         143.6038  140.2592  159.0093 C.3     1  UNL1        0.0210
     29 H         144.5344  143.4490  157.4177 H       1  UNL1        0.1233
     30 N         143.2563  137.7781  157.2829 N.am    1  UNL1       -0.3035
     31 C         143.4763  139.1306  156.6726 C.2     1  UNL1        0.2234
     32 O         143.2842  139.3283  155.1981 O.2     1  UNL1       -0.2751
     33 H         143.3824  137.6484  158.2506 H       1  UNL1        0.1495
     34 C         142.8442  136.6234  156.4187 C.3     1  UNL1        0.1011
     35 C         141.4003  136.4334  156.0594 C.3     1  UNL1        0.1615
     36 O         140.4587  137.6005  156.0949 O.3     1  UNL1       -0.3520
     37 C         140.0253  139.1235  158.1547 C.3     1  UNL1        0.0346
     38 C         139.6894  137.9057  157.3459 C.3     1  UNL1        0.1423
     39 C         143.8759  135.6587  155.9139 C.3     1  UNL1        0.0221
     40 C         143.7197  134.1896  156.1736 C.3     1  UNL1        0.0017
     41 C         144.0755  133.6234  157.5164 C.3     1  UNL1        0.0001
     42 C         143.2077  133.2868  155.0907 C.3     1  UNL1        0.0001
     43 C         141.4771  142.6113  160.9320 C.3     1  UNL1        0.0800
     44 C         140.9338  143.8245  160.2371 C.3     1  UNL1        0.0219
     45 C         140.3146  142.4803  159.9932 C.3     1  UNL1        0.0219
@<TRIPOS>BOND
     1    37    38    1
     2    38    36    1
     3    36    35    1
     4    34    35    1
     5    34    39    1
     6    39    40    1
     7    40    41    1
     8    40    42    1
     9    34    30    1
    10    30    31   am
    11    31    32    2
    12    23    31    1
    13    23    24    1
    14    24    25    1
    15    25    26    1
    16    26    27    1
    17    27     1    1
    18     1     2    2
    19     1     3   am
    20     3     4    1
    21     4     5   ar
    22     5     6   ar
    23     6     7   ar
    24     7     8   ar
    25     8     9   ar
    26     9    10    1
    27     7    11    1
    28    11    12    1
    29    12    13    1
    30    12    14    1
    31    12    15    1
    32    15    16    2
    33    15    17   am
    34    17    18    1
    35    18    19    1
    36    19    20    1
    37    20    21    1
    38    21    22    1
    39     3    43    1
    40    43    44    1
    41    44    45    1
    42    27    28    1
    43    28    23    1
    44     9     4   ar
    45    45    43    1
    46    17     6    1
    47    30    33    1
    48    25    29    1
@<TRIPOS>MOLECULE
*****
 45 48 0 0 0
SMALL
GASTEIGER

@<TRIPOS>ATOM
      1 C         139.4802  143.3734  160.7297 C.2     1  UNL1        0.2302
      2 O         138.8044  144.3944  161.5963 O.2     1  UNL1       -0.2745
      3 N         140.3902  142.3519  161.3447 N.am    1  UNL1       -0.2582
      4 C         140.6245  142.3513  162.8263 C.ar    1  UNL1        0.0828
      5 C         139.8830  141.3857  163.7025 C.ar    1  UNL1        0.0352
      6 C         140.1173  141.3852  165.1841 C.ar    1  UNL1        0.0895
      7 C         141.0930  142.3503  165.7895 C.ar    1  UNL1        0.1547
      8 C         141.8345  143.3159  164.9133 C.ar    1  UNL1        0.0691
      9 C         141.6003  143.3164  163.4317 C.ar    1  UNL1        0.1568
     10 F         142.3418  144.2821  162.5554 F       1  UNL1       -0.2027
     11 O         141.3273  142.3498  167.2711 O.3     1  UNL1       -0.4726
     12 C         140.5858  141.3842  168.1473 C.3     1  UNL1        0.2012
     13 C         140.1280  140.6673  169.3828 C.3     1  UNL1        0.0532
     14 C         141.4025  142.1003  169.1817 C.3     1  UNL1        0.0532
     15 C         139.6101  140.4191  167.5419 C.2     1  UNL1        0.2656
     16 O         138.8685  139.4534  168.4182 O.2     1  UNL1       -0.2708
     17 N         139.3758  140.4196  166.0604 N.am    1  UNL1       -0.2531
     18 C         138.4000  139.4545  165.4550 C.3     1  UNL1        0.1010
     19 C         138.8349  138.0580  165.1219 C.3     1  UNL1        0.0539
     20 C         139.3039  137.7291  163.7356 C.3     1  UNL1        0.1440
     21 O         138.3133  137.6216  162.6145 O.3     1  UNL1       -0.3510
     22 C         137.9148  138.8464  161.8456 C.3     1  UNL1        0.1741
     23 C         137.9364  142.5108  157.1768 C.3     1  UNL1        0.0927
     24 C         138.7774  143.3751  156.2849 C.3     1  UNL1        0.0777
     25 N         139.8526  144.2389  156.8745 N.3     1  UNL1       -0.2967
     26 C         140.0869  144.2384  158.3561 C.3     1  UNL1        0.0777
     27 C         139.2459  143.3740  159.2481 C.3     1  UNL1        0.0932
     28 C         138.1707  142.5102  158.6584 C.3     1  UNL1        0.0210
     29 H         139.6357  145.2002  156.6111 H       1  UNL1        0.1233
     30 N         135.9583  142.1954  155.5222 N.am    1  UNL1       -0.3035
     31 C         136.8612  141.6470  156.5872 C.2     1  UNL1        0.2234
     32 O         136.6888  140.2347  157.0625 O.2     1  UNL1       -0.2751
     33 H         136.0715  143.1223  155.2103 H       1  UNL1        0.1495
     34 C         134.8831  141.3316  154.9326 C.3     1  UNL1        0.1011
     35 C         133.5600  141.2019  155.6273 C.3     1  UNL1        0.1615
     36 O         133.4072  140.2525  156.7785 O.3     1  UNL1       -0.3520
     37 C         131.6417  138.3475  156.7121 C.3     1  UNL1        0.0346
     38 C         133.0540  138.8168  156.5248 C.3     1  UNL1        0.1423
     39 C         135.1309  140.5974  153.6483 C.3     1  UNL1        0.0221
     40 C         136.2921  139.6547  153.5352 C.3     1  UNL1        0.0017
     41 C         137.4916  140.0367  152.7195 C.3     1  UNL1        0.0001
     42 C         136.2539  138.3300  154.2379 C.3     1  UNL1        0.0001
     43 C         141.0660  141.3309  160.4782 C.3     1  UNL1        0.0800
     44 C         141.2125  139.9113  160.0164 C.3     1  UNL1        0.0219
     45 C         142.0901  140.9821  159.4391 C.3     1  UNL1        0.0219
@<TRIPOS>BOND
     1    37    38    1
     2    38    36    1
     3    36    35    1
     4    34    35    1
     5    34    39    1
     6    39    40    1
     7    40    41    1
     8    40    42    1
     9    34    30    1
    10    30    31   am
    11    31    32    2
    12    23    31    1
    13    23    24    1
    14    24    25    1
    15    25    26    1
    16    26    27    1
    17    27     1    1
    18     1     2    2
    19     1     3   am
    20     3     4    1
    21     4     5   ar
    22     5     6   ar
    23     6     7   ar
    24     7     8   ar
    25     8     9   ar
    26     9    10    1
    27     7    11    1
    28    11    12    1
    29    12    13    1
    30    12    14    1
    31    12    15    1
    32    15    16    2
    33    15    17   am
    34    17    18    1
    35    18    19    1
    36    19    20    1
    37    20    21    1
    38    21    22    1
    39     3    43    1
    40    43    44    1
    41    44    45    1
    42    27    28    1
    43    28    23    1
    44     9     4   ar
    45    45    43    1
    46    17     6    1
    47    30    33    1
    48    25    29    1
@<TRIPOS>MOLECULE
*****
 45 48 0 0 0
SMALL
GASTEIGER

@<TRIPOS>ATOM
      1 C         141.5553  144.1025  162.3069 C.2     1  UNL1        0.2302
      2 O         142.4572  144.8943  163.2067 O.2     1  UNL1       -0.2745
      3 N         140.6937  143.0151  162.8771 N.am    1  UNL1       -0.2582
      4 C         140.7340  142.7195  164.3472 C.ar    1  UNL1        0.0828
      5 C         141.5135  141.5426  164.8544 C.ar    1  UNL1        0.0352
      6 C         141.5539  141.2470  166.3244 C.ar    1  UNL1        0.0895
      7 C         140.8147  142.1283  167.2872 C.ar    1  UNL1        0.1547
      8 C         140.0352  143.3052  166.7800 C.ar    1  UNL1        0.0691
      9 C         139.9949  143.6008  165.3100 C.ar    1  UNL1        0.1568
     10 F         139.2154  144.7777  164.8027 F       1  UNL1       -0.2027
     11 O         140.8551  141.8326  168.7573 O.3     1  UNL1       -0.4726
     12 C         141.6346  140.6558  169.2645 C.3     1  UNL1        0.2012
     13 C         142.2291  139.6655  170.2215 C.3     1  UNL1        0.0532
     14 C         141.1019  141.1931  170.5596 C.3     1  UNL1        0.0532
     15 C         142.3737  139.7745  168.3017 C.2     1  UNL1        0.2656
     16 O         143.1532  138.5975  168.8090 O.2     1  UNL1       -0.2708
     17 N         142.3334  140.0701  166.8317 N.am    1  UNL1       -0.2531
     18 C         143.0725  139.1888  165.8689 C.3     1  UNL1        0.1010
     19 C         142.3394  138.1157  165.1198 C.3     1  UNL1        0.0539
     20 C         142.2799  138.1539  163.6214 C.3     1  UNL1        0.1440
     21 O         140.9816  138.4467  162.9296 O.3     1  UNL1       -0.3510
     22 C         139.7715  137.6092  163.2200 C.3     1  UNL1        0.1741
     23 C         142.4628  144.0447  158.4438 C.3     1  UNL1        0.0927
     24 C         141.4342  144.9896  157.8968 C.3     1  UNL1        0.0777
     25 N         140.4460  145.6387  158.8198 N.3     1  UNL1       -0.2967
     26 C         140.4863  145.3431  160.2898 C.3     1  UNL1        0.0777
     27 C         141.5149  144.3982  160.8369 C.3     1  UNL1        0.0932
     28 C         142.5032  143.7490  159.9139 C.3     1  UNL1        0.0210
     29 H         139.5176  145.3729  158.4914 H       1  UNL1        0.1233
     30 N         144.6685  142.7210  158.0800 N.am    1  UNL1       -0.3035
     31 C         143.4511  143.3956  157.5208 C.2     1  UNL1        0.2234
     32 O         143.2218  143.4210  156.0386 O.2     1  UNL1       -0.2751
     33 H         144.8190  142.7043  159.0528 H       1  UNL1        0.1495
     34 C         145.6568  142.0718  157.1570 C.3     1  UNL1        0.1011
     35 C         145.2853  140.8180  156.4222 C.3     1  UNL1        0.1615
     36 O         144.6077  139.6950  157.1499 O.3     1  UNL1       -0.3520
     37 C         142.2663  140.0006  158.2337 C.3     1  UNL1        0.0346
     38 C         143.1162  139.5497  157.0829 C.3     1  UNL1        0.1423
     39 C         147.0165  142.6764  156.9688 C.3     1  UNL1        0.0221
     40 C         147.6818  142.6229  155.6255 C.3     1  UNL1        0.0017
     41 C         147.1531  143.4526  154.4931 C.3     1  UNL1        0.0001
     42 C         148.8757  141.7396  155.4144 C.3     1  UNL1        0.0001
     43 C         139.7918  142.2233  161.9774 C.3     1  UNL1        0.0800
     44 C         139.6068  141.1832  160.9125 C.3     1  UNL1        0.0219
     45 C         138.4146  141.8920  161.4838 C.3     1  UNL1        0.0219
@<TRIPOS>BOND
     1    37    38    1
     2    38    36    1
     3    36    35    1
     4    34    35    1
     5    34    39    1
     6    39    40    1
     7    40    41    1
     8    40    42    1
     9    34    30    1
    10    30    31   am
    11    31    32    2
    12    23    31    1
    13    23    24    1
    14    24    25    1
    15    25    26    1
    16    26    27    1
    17    27     1    1
    18     1     2    2
    19     1     3   am
    20     3     4    1
    21     4     5   ar
    22     5     6   ar
    23     6     7   ar
    24     7     8   ar
    25     8     9   ar
    26     9    10    1
    27     7    11    1
    28    11    12    1
    29    12    13    1
    30    12    14    1
    31    12    15    1
    32    15    16    2
    33    15    17   am
    34    17    18    1
    35    18    19    1
    36    19    20    1
    37    20    21    1
    38    21    22    1
    39     3    43    1
    40    43    44    1
    41    44    45    1
    42    27    28    1
    43    28    23    1
    44     9     4   ar
    45    45    43    1
    46    17     6    1
    47    30    33    1
    48    25    29    1
@<TRIPOS>MOLECULE
*****
 45 48 0 0 0
SMALL
GASTEIGER

@<TRIPOS>ATOM
      1 C         138.8393  139.4332  160.8271 C.2     1  UNL1        0.2302
      2 O         137.4473  139.5138  161.3802 O.2     1  UNL1       -0.2745
      3 N         140.0157  139.4082  161.7574 N.am    1  UNL1       -0.2582
      4 C         139.8000  139.4639  163.2408 C.ar    1  UNL1        0.0828
      5 C         140.3253  140.6249  164.0320 C.ar    1  UNL1        0.0352
      6 C         140.1096  140.6806  165.5153 C.ar    1  UNL1        0.0895
      7 C         139.3687  139.5751  166.2075 C.ar    1  UNL1        0.1547
      8 C         138.8435  138.4141  165.4163 C.ar    1  UNL1        0.0691
      9 C         139.0591  138.3585  163.9330 C.ar    1  UNL1        0.1568
     10 F         138.5339  137.1974  163.1417 F       1  UNL1       -0.2027
     11 O         139.1531  139.6308  167.6909 O.3     1  UNL1       -0.4726
     12 C         139.6783  140.7919  168.4821 C.3     1  UNL1        0.2012
     13 C         139.9830  141.6757  169.6552 C.3     1  UNL1        0.0532
     14 C         139.0432  139.9934  169.5816 C.3     1  UNL1        0.0532
     15 C         140.4192  141.8973  167.7899 C.2     1  UNL1        0.2656
     16 O         140.9445  143.0584  168.5812 O.2     1  UNL1       -0.2708
     17 N         140.6349  141.8417  166.3066 N.am    1  UNL1       -0.2531
     18 C         141.3758  142.9471  165.6144 C.3     1  UNL1        0.1010
     19 C         140.6194  143.9949  164.8528 C.3     1  UNL1        0.0539
     20 C         139.1917  144.2929  165.2036 C.3     1  UNL1        0.1440
     21 O         138.0793  143.6350  164.4423 O.3     1  UNL1       -0.3510
     22 C         137.6779  144.1613  163.0962 C.3     1  UNL1        0.1741
     23 C         140.1245  138.2410  157.2665 C.3     1  UNL1        0.0927
     24 C         139.4861  139.2662  156.3769 C.3     1  UNL1        0.0777
     25 N         138.6321  140.3470  156.9707 N.3     1  UNL1       -0.2967
     26 C         138.4165  140.4027  158.4540 C.3     1  UNL1        0.0777
     27 C         139.0549  139.3775  159.3437 C.3     1  UNL1        0.0932
     28 C         139.9089  138.2967  158.7500 C.3     1  UNL1        0.0210
     29 H         137.7103  140.2627  156.5421 H       1  UNL1        0.1233
     30 N         142.3562  136.9120  157.2115 N.am    1  UNL1       -0.3035
     31 C         140.9785  137.1602  156.6728 C.2     1  UNL1        0.2234
     32 O         140.4547  136.3276  155.5403 O.2     1  UNL1       -0.2751
     33 H         142.6999  137.4585  157.9548 H       1  UNL1        0.1495
     34 C         143.2102  135.8312  156.6178 C.3     1  UNL1        0.1011
     35 C         144.1540  136.1518  155.4969 C.3     1  UNL1        0.1615
     36 O         144.9936  137.3935  155.5553 O.3     1  UNL1       -0.3520
     37 C         143.9498  139.7622  155.7789 C.3     1  UNL1        0.0346
     38 C         144.5021  138.6616  154.9224 C.3     1  UNL1        0.1423
     39 C         143.1204  134.4298  157.1449 C.3     1  UNL1        0.0221
     40 C         142.9978  133.2769  156.1931 C.3     1  UNL1        0.0017
     41 C         144.1945  132.4251  155.8888 C.3     1  UNL1        0.0001
     42 C         141.6787  132.9757  155.5458 C.3     1  UNL1        0.0001
     43 C         141.4077  139.3276  161.2044 C.3     1  UNL1        0.0800
     44 C         142.6655  138.5476  160.9607 C.3     1  UNL1        0.0219
     45 C         142.5608  139.9680  160.4902 C.3     1  UNL1        0.0219
@<TRIPOS>BOND
     1    37    38    1
     2    38    36    1
     3    36    35    1
     4    34    35    1
     5    34    39    1
     6    39    40    1
     7    40    41    1
     8    40    42    1
     9    34    30    1
    10    30    31   am
    11    31    32    2
    12    23    31    1
    13    23    24    1
    14    24    25    1
    15    25    26    1
    16    26    27    1
    17    27     1    1
    18     1     2    2
    19     1     3   am
    20     3     4    1
    21     4     5   ar
    22     5     6   ar
    23     6     7   ar
    24     7     8   ar
    25     8     9   ar
    26     9    10    1
    27     7    11    1
    28    11    12    1
    29    12    13    1
    30    12    14    1
    31    12    15    1
    32    15    16    2
    33    15    17   am
    34    17    18    1
    35    18    19    1
    36    19    20    1
    37    20    21    1
    38    21    22    1
    39     3    43    1
    40    43    44    1
    41    44    45    1
    42    27    28    1
    43    28    23    1
    44     9     4   ar
    45    45    43    1
    46    17     6    1
    47    30    33    1
    48    25    29    1
@<TRIPOS>MOLECULE
*****
 45 48 0 0 0
SMALL
GASTEIGER

@<TRIPOS>ATOM
      1 C         143.7136  141.1160  162.0805 C.2     1  UNL1        0.2302
      2 O         144.6385  140.2851  162.9197 O.2     1  UNL1       -0.2745
      3 N         142.5810  141.8594  162.7242 N.am    1  UNL1       -0.2582
      4 C         142.3733  141.7720  164.2073 C.ar    1  UNL1        0.0828
      5 C         141.1748  141.0559  164.7558 C.ar    1  UNL1        0.0352
      6 C         140.9672  140.9684  166.2387 C.ar    1  UNL1        0.0895
      7 C         141.9579  141.5970  167.1732 C.ar    1  UNL1        0.1547
      8 C         143.1564  142.3131  166.6247 C.ar    1  UNL1        0.0691
      9 C         143.3641  142.4006  165.1417 C.ar    1  UNL1        0.1568
     10 F         144.5626  143.1167  164.5931 F       1  UNL1       -0.2027
     11 O         141.7502  141.5096  168.6562 O.3     1  UNL1       -0.4726
     12 C         140.5517  140.7935  169.2047 C.3     1  UNL1        0.2012
     13 C         139.5802  140.2274  170.1974 C.3     1  UNL1        0.0532
     14 C         141.2051  141.2255  170.4839 C.3     1  UNL1        0.0532
     15 C         139.5610  140.1649  168.2702 C.2     1  UNL1        0.2656
     16 O         138.3625  139.4488  168.8188 O.2     1  UNL1       -0.2708
     17 N         139.7686  140.2523  166.7873 N.am    1  UNL1       -0.2531
     18 C         138.7779  139.6237  165.8528 C.3     1  UNL1        0.1010
     19 C         138.9551  138.1985  165.4197 C.3     1  UNL1        0.0539
     20 C         138.8143  137.8315  163.9721 C.3     1  UNL1        0.1440
     21 O         140.0355  137.6806  163.1144 O.3     1  UNL1       -0.3510
     22 C         141.3101  137.1594  163.7093 C.3     1  UNL1        0.1741
     23 C         143.6526  140.1822  158.2237 C.3     1  UNL1        0.0927
     24 C         144.3370  141.3784  157.6316 C.3     1  UNL1        0.0777
     25 N         144.8136  142.4872  158.5224 N.3     1  UNL1       -0.2967
     26 C         144.6058  142.3997  160.0053 C.3     1  UNL1        0.0777
     27 C         143.9214  141.2035  160.5975 C.3     1  UNL1        0.0932
     28 C         143.4448  140.0947  159.7067 C.3     1  UNL1        0.0210
     29 H         144.3462  143.3380  158.2092 H       1  UNL1        0.1233
     30 N         144.0937  138.4979  156.2954 N.am    1  UNL1       -0.3035
     31 C         143.1760  139.0735  157.3329 C.2     1  UNL1        0.2234
     32 O         141.7816  138.5403  157.4797 O.2     1  UNL1       -0.2751
     33 H         145.0089  138.8478  156.1991 H       1  UNL1        0.1495
     34 C         143.6171  137.3891  155.4046 C.3     1  UNL1        0.1011
     35 C         144.0637  135.9796  155.6571 C.3     1  UNL1        0.1615
     36 O         143.3174  135.1199  156.6338 O.3     1  UNL1       -0.3520
     37 C         144.5168  133.1436  157.8195 C.3     1  UNL1        0.0346
     38 C         143.6226  133.6543  156.7288 C.3     1  UNL1        0.1423
     39 C         142.6938  137.6898  154.2614 C.3     1  UNL1        0.0221
     40 C         141.6031  136.7241  153.9042 C.3     1  UNL1        0.0017
     41 C         140.4108  136.5738  154.8019 C.3     1  UNL1        0.0001
     42 C         141.7046  135.9087  152.6493 C.3     1  UNL1        0.0001
     43 C         141.6561  142.6903  161.8851 C.3     1  UNL1        0.0800
     44 C         140.5036  142.7879  160.9300 C.3     1  UNL1        0.0219
     45 C         141.2067  144.0318  161.3867 C.3     1  UNL1        0.0219
@<TRIPOS>BOND
     1    37    38    1
     2    38    36    1
     3    36    35    1
     4    34    35    1
     5    34    39    1
     6    39    40    1
     7    40    41    1
     8    40    42    1
     9    34    30    1
    10    30    31   am
    11    31    32    2
    12    23    31    1
    13    23    24    1
    14    24    25    1
    15    25    26    1
    16    26    27    1
    17    27     1    1
    18     1     2    2
    19     1     3   am
    20     3     4    1
    21     4     5   ar
    22     5     6   ar
    23     6     7   ar
    24     7     8   ar
    25     8     9   ar
    26     9    10    1
    27     7    11    1
    28    11    12    1
    29    12    13    1
    30    12    14    1
    31    12    15    1
    32    15    16    2
    33    15    17   am
    34    17    18    1
    35    18    19    1
    36    19    20    1
    37    20    21    1
    38    21    22    1
    39     3    43    1
    40    43    44    1
    41    44    45    1
    42    27    28    1
    43    28    23    1
    44     9     4   ar
    45    45    43    1
    46    17     6    1
    47    30    33    1
    48    25    29    1
@<TRIPOS>MOLECULE
*****
 45 48 0 0 0
SMALL
GASTEIGER

@<TRIPOS>ATOM
      1 C         142.6897  139.9211  161.0581 C.2     1  UNL1        0.2302
      2 O         143.9027  140.1061  161.9211 O.2     1  UNL1       -0.2745
      3 N         141.3411  139.7394  161.6890 N.am    1  UNL1       -0.2582
      4 C         141.2053  139.7427  163.1829 C.ar    1  UNL1        0.0828
      5 C         140.9122  141.0235  163.9066 C.ar    1  UNL1        0.0352
      6 C         140.7765  141.0267  165.4004 C.ar    1  UNL1        0.0895
      7 C         140.9339  139.7492  166.1706 C.ar    1  UNL1        0.1547
      8 C         141.2270  138.4684  165.4469 C.ar    1  UNL1        0.0691
      9 C         141.3627  138.4652  163.9531 C.ar    1  UNL1        0.1568
     10 F         141.6559  137.1844  163.2294 F       1  UNL1       -0.2027
     11 O         140.7982  139.7525  167.6645 O.3     1  UNL1       -0.4726
     12 C         140.5051  141.0333  168.3881 C.3     1  UNL1        0.2012
     13 C         140.2339  141.9852  169.5151 C.3     1  UNL1        0.0532
     14 C         140.5683  140.0864  169.5497 C.3     1  UNL1        0.0532
     15 C         140.3477  142.3108  167.6179 C.2     1  UNL1        0.2656
     16 O         140.0546  143.5916  168.3416 O.2     1  UNL1       -0.2708
     17 N         140.4834  142.3075  166.1241 N.am    1  UNL1       -0.2531
     18 C         140.3260  143.5850  165.3539 C.3     1  UNL1        0.1010
     19 C         138.9592  144.0562  164.9540 C.3     1  UNL1        0.0539
     20 C         138.7806  144.8641  163.7028 C.3     1  UNL1        0.1440
     21 O         137.8702  144.3731  162.6166 O.3     1  UNL1       -0.3510
     22 C         137.8287  142.9130  162.2756 C.3     1  UNL1        0.1741
     23 C         143.0500  138.6140  157.3282 C.3     1  UNL1        0.0927
     24 C         143.0970  139.9112  156.5766 C.3     1  UNL1        0.0777
     25 N         143.0083  141.2117  157.3188 N.3     1  UNL1       -0.2967
     26 C         142.8725  141.2150  158.8126 C.3     1  UNL1        0.0777
     27 C         142.8255  139.9178  159.5643 C.3     1  UNL1        0.0932
     28 C         142.9142  138.6173  158.8221 C.3     1  UNL1        0.0210
     29 H         142.1975  141.7074  156.9483 H       1  UNL1        0.1233
     30 N         142.0155  136.3231  156.6715 N.am    1  UNL1       -0.3035
     31 C         143.1387  137.3135  156.5861 C.2     1  UNL1        0.2234
     32 O         144.3507  137.0035  155.7584 O.2     1  UNL1       -0.2751
     33 H         141.2201  136.5265  157.2148 H       1  UNL1        0.1495
     34 C         142.1043  135.0226  155.9294 C.3     1  UNL1        0.1011
     35 C         142.7670  133.8382  156.5681 C.3     1  UNL1        0.1615
     36 O         144.1264  133.9821  157.1857 O.3     1  UNL1       -0.3520
     37 C         144.4519  131.4177  157.4470 C.3     1  UNL1        0.0346
     38 C         144.7570  132.8178  157.8906 C.3     1  UNL1        0.1423
     39 C         141.5302  134.9064  154.5485 C.3     1  UNL1        0.0221
     40 C         141.0730  136.1356  153.8204 C.3     1  UNL1        0.0017
     41 C         139.6926  136.6749  154.0526 C.3     1  UNL1        0.0001
     42 C         141.9961  136.8255  152.8603 C.3     1  UNL1        0.0001
     43 C         140.1282  139.5544  160.8262 C.3     1  UNL1        0.0800
     44 C         139.2077  138.6559  160.0545 C.3     1  UNL1        0.0219
     45 C         138.9478  140.1323  160.1033 C.3     1  UNL1        0.0219
@<TRIPOS>BOND
     1    37    38    1
     2    38    36    1
     3    36    35    1
     4    34    35    1
     5    34    39    1
     6    39    40    1
     7    40    41    1
     8    40    42    1
     9    34    30    1
    10    30    31   am
    11    31    32    2
    12    23    31    1
    13    23    24    1
    14    24    25    1
    15    25    26    1
    16    26    27    1
    17    27     1    1
    18     1     2    2
    19     1     3   am
    20     3     4    1
    21     4     5   ar
    22     5     6   ar
    23     6     7   ar
    24     7     8   ar
    25     8     9   ar
    26     9    10    1
    27     7    11    1
    28    11    12    1
    29    12    13    1
    30    12    14    1
    31    12    15    1
    32    15    16    2
    33    15    17   am
    34    17    18    1
    35    18    19    1
    36    19    20    1
    37    20    21    1
    38    21    22    1
    39     3    43    1
    40    43    44    1
    41    44    45    1
    42    27    28    1
    43    28    23    1
    44     9     4   ar
    45    45    43    1
    46    17     6    1
    47    30    33    1
    48    25    29    1
@<TRIPOS>MOLECULE
*****
 45 48 0 0 0
SMALL
GASTEIGER

@<TRIPOS>ATOM
      1 C         139.2635  142.4171  160.6361 C.2     1  UNL1        0.2302
      2 O         138.9196  143.5914  161.5038 O.2     1  UNL1       -0.2745
      3 N         139.5645  141.0864  161.2597 N.am    1  UNL1       -0.2582
      4 C         139.5216  140.9301  162.7509 C.ar    1  UNL1        0.0828
      5 C         140.7638  140.5511  163.5014 C.ar    1  UNL1        0.0352
      6 C         140.7208  140.3948  164.9925 C.ar    1  UNL1        0.0895
      7 C         139.4357  140.6175  165.7333 C.ar    1  UNL1        0.1547
      8 C         138.1934  140.9964  164.9829 C.ar    1  UNL1        0.0691
      9 C         138.2364  141.1527  163.4917 C.ar    1  UNL1        0.1568
     10 F         136.9941  141.5317  162.7412 F       1  UNL1       -0.2027
     11 O         139.3928  140.4611  167.2246 O.3     1  UNL1       -0.4726
     12 C         140.6350  140.0822  167.9750 C.3     1  UNL1        0.2012
     13 C         141.5401  139.7391  169.1209 C.3     1  UNL1        0.0532
     14 C         139.6642  140.1857  169.1137 C.3     1  UNL1        0.0532
     15 C         141.9202  139.8595  167.2342 C.2     1  UNL1        0.2656
     16 O         143.1625  139.4805  167.9847 O.2     1  UNL1       -0.2708
     17 N         141.9631  140.0158  165.7431 N.am    1  UNL1       -0.2531
     18 C         143.2483  139.7932  165.0023 C.3     1  UNL1        0.1010
     19 C         144.1590  140.9502  164.7159 C.3     1  UNL1        0.0539
     20 C         145.4529  140.7248  163.9913 C.3     1  UNL1        0.1440
     21 O         145.9439  141.7379  163.0001 O.3     1  UNL1       -0.3510
     22 C         145.0483  142.1921  161.8858 C.3     1  UNL1        0.1741
     23 C         138.2131  142.2263  156.8138 C.3     1  UNL1        0.0927
     24 C         139.3922  142.8862  156.1625 C.3     1  UNL1        0.0777
     25 N         140.5284  143.3898  157.0024 N.3     1  UNL1       -0.2967
     26 C         140.4855  143.2335  158.4936 C.3     1  UNL1        0.0777
     27 C         139.3064  142.5735  159.1449 C.3     1  UNL1        0.0932
     28 C         138.1702  142.0699  158.3050 C.3     1  UNL1        0.0210
     29 H         140.6142  144.3885  156.8135 H       1  UNL1        0.1233
     30 N         136.0939  140.7468  156.5493 N.am    1  UNL1       -0.3035
     31 C         137.0770  141.7227  155.9738 C.2     1  UNL1        0.2234
     32 O         136.9239  142.1950  154.5583 O.2     1  UNL1       -0.2751
     33 H         136.1944  140.4369  157.4783 H       1  UNL1        0.1495
     34 C         134.9577  140.2432  155.7094 C.3     1  UNL1        0.1011
     35 C         135.1785  139.1120  154.7495 C.3     1  UNL1        0.1615
     36 O         136.4506  138.3190  154.8047 O.3     1  UNL1       -0.3520
     37 C         138.8680  139.0523  154.1977 C.3     1  UNL1        0.0346
     38 C         137.5204  138.5449  153.7777 C.3     1  UNL1        0.1423
     39 C         133.6007  140.8709  155.8293 C.3     1  UNL1        0.0221
     40 C         132.5253  140.1871  156.6205 C.3     1  UNL1        0.0017
     41 C         131.0820  140.4391  156.2986 C.3     1  UNL1        0.0001
     42 C         132.8931  139.2514  157.7337 C.3     1  UNL1        0.0001
     43 C         139.9083  139.9122  160.3920 C.3     1  UNL1        0.0800
     44 C         140.9361  139.0304  159.7469 C.3     1  UNL1        0.0219
     45 C         139.4761  138.7600  159.5344 C.3     1  UNL1        0.0219
@<TRIPOS>BOND
     1    37    38    1
     2    38    36    1
     3    36    35    1
     4    34    35    1
     5    34    39    1
     6    39    40    1
     7    40    41    1
     8    40    42    1
     9    34    30    1
    10    30    31   am
    11    31    32    2
    12    23    31    1
    13    23    24    1
    14    24    25    1
    15    25    26    1
    16    26    27    1
    17    27     1    1
    18     1     2    2
    19     1     3   am
    20     3     4    1
    21     4     5   ar
    22     5     6   ar
    23     6     7   ar
    24     7     8   ar
    25     8     9   ar
    26     9    10    1
    27     7    11    1
    28    11    12    1
    29    12    13    1
    30    12    14    1
    31    12    15    1
    32    15    16    2
    33    15    17   am
    34    17    18    1
    35    18    19    1
    36    19    20    1
    37    20    21    1
    38    21    22    1
    39     3    43    1
    40    43    44    1
    41    44    45    1
    42    27    28    1
    43    28    23    1
    44     9     4   ar
    45    45    43    1
    46    17     6    1
    47    30    33    1
    48    25    29    1
@<TRIPOS>MOLECULE
*****
 45 48 0 0 0
SMALL
GASTEIGER

@<TRIPOS>ATOM
      1 C         141.8768  144.0068  161.0514 C.2     1  UNL1        0.2302
      2 O         142.8941  144.6499  161.9468 O.2     1  UNL1       -0.2745
      3 N         140.8866  143.0335  161.6190 N.am    1  UNL1       -0.2582
      4 C         140.9137  142.7032  163.0819 C.ar    1  UNL1        0.0828
      5 C         141.7450  141.5569  163.5767 C.ar    1  UNL1        0.0352
      6 C         141.7720  141.2267  165.0397 C.ar    1  UNL1        0.0895
      7 C         140.9679  142.0428  166.0078 C.ar    1  UNL1        0.1547
      8 C         140.1366  143.1891  165.5130 C.ar    1  UNL1        0.0691
      9 C         140.1096  143.5194  164.0501 C.ar    1  UNL1        0.1568
     10 F         139.2783  144.6658  163.5552 F       1  UNL1       -0.2027
     11 O         140.9950  141.7125  167.4708 O.3     1  UNL1       -0.4726
     12 C         141.8262  140.5662  167.9656 C.3     1  UNL1        0.2012
     13 C         142.4539  139.5849  168.9106 C.3     1  UNL1        0.0532
     14 C         141.2401  141.0415  169.2618 C.3     1  UNL1        0.0532
     15 C         142.6304  139.7500  166.9974 C.2     1  UNL1        0.2656
     16 O         143.4617  138.6036  167.4923 O.2     1  UNL1       -0.2708
     17 N         142.6033  140.0803  165.5345 N.am    1  UNL1       -0.2531
     18 C         143.4075  139.2641  164.5664 C.3     1  UNL1        0.1010
     19 C         144.8653  139.5569  164.3685 C.3     1  UNL1        0.0539
     20 C         145.3301  140.9734  164.2029 C.3     1  UNL1        0.1440
     21 O         145.9269  141.4196  162.9012 O.3     1  UNL1       -0.3510
     22 C         145.0354  141.8790  161.7857 C.3     1  UNL1        0.1741
     23 C         142.6641  143.8822  157.1636 C.3     1  UNL1        0.0927
     24 C         141.7955  144.9978  156.6626 C.3     1  UNL1        0.0777
     25 N         140.9541  145.7831  157.6245 N.3     1  UNL1       -0.2967
     26 C         140.9811  145.4528  159.0874 C.3     1  UNL1        0.0777
     27 C         141.8497  144.3371  159.5885 C.3     1  UNL1        0.0932
     28 C         142.6912  143.5518  158.6266 C.3     1  UNL1        0.0210
     29 H         139.9863  145.6838  157.3181 H       1  UNL1        0.1233
     30 N         144.0794  141.7739  156.6143 N.am    1  UNL1       -0.3035
     31 C         143.5056  143.0969  156.2017 C.2     1  UNL1        0.2234
     32 O         143.7732  143.6347  154.8272 O.2     1  UNL1       -0.2751
     33 H         143.9038  141.4209  157.5164 H       1  UNL1        0.1495
     34 C         144.9209  140.9886  155.6524 C.3     1  UNL1        0.1011
     35 C         144.2672  140.0939  154.6414 C.3     1  UNL1        0.1615
     36 O         144.5601  138.6227  154.6412 O.3     1  UNL1       -0.3520
     37 C         143.8962  136.3531  155.7173 C.3     1  UNL1        0.0346
     38 C         143.5036  137.6476  155.0692 C.3     1  UNL1        0.1423
     39 C         146.4160  141.0980  155.7014 C.3     1  UNL1        0.0221
     40 C         147.0664  142.4456  155.8066 C.3     1  UNL1        0.0017
     41 C         147.5153  142.9595  157.1425 C.3     1  UNL1        0.0001
     42 C         147.2678  143.2793  154.5760 C.3     1  UNL1        0.0001
     43 C         139.8693  142.3905  160.7236 C.3     1  UNL1        0.0800
     44 C         138.6030  142.4766  159.9243 C.3     1  UNL1        0.0219
     45 C         139.3737  141.1907  159.9722 C.3     1  UNL1        0.0219
@<TRIPOS>BOND
     1    37    38    1
     2    38    36    1
     3    36    35    1
     4    34    35    1
     5    34    39    1
     6    39    40    1
     7    40    41    1
     8    40    42    1
     9    34    30    1
    10    30    31   am
    11    31    32    2
    12    23    31    1
    13    23    24    1
    14    24    25    1
    15    25    26    1
    16    26    27    1
    17    27     1    1
    18     1     2    2
    19     1     3   am
    20     3     4    1
    21     4     5   ar
    22     5     6   ar
    23     6     7   ar
    24     7     8   ar
    25     8     9   ar
    26     9    10    1
    27     7    11    1
    28    11    12    1
    29    12    13    1
    30    12    14    1
    31    12    15    1
    32    15    16    2
    33    15    17   am
    34    17    18    1
    35    18    19    1
    36    19    20    1
    37    20    21    1
    38    21    22    1
    39     3    43    1
    40    43    44    1
    41    44    45    1
    42    27    28    1
    43    28    23    1
    44     9     4   ar
    45    45    43    1
    46    17     6    1
    47    30    33    1
    48    25    29    1
