@<TRIPOS>MOLECULE
*****
 41 46 0 0 0
SMALL
GASTEIGER

@<TRIPOS>ATOM
      1 C         139.7493  140.6459  159.4240 C.ar    1  UNL1        0.0000
      2 C         140.8154  139.6750  159.0108 C.ar    1  UNL1        0.0000
      3 O         141.8049  139.5679  160.1330 O.2     1  UNL1        0.0000
      4 C         141.3504  140.4727  161.2397 C.ar    1  UNL1        0.0000
      5 C         141.9292  140.7759  162.5899 C.ar    1  UNL1        0.0000
      6 C         141.2376  141.7454  163.5018 C.ar    1  UNL1        0.0000
      7 C         139.9672  142.4117  163.0636 C.ar    1  UNL1        0.0000
      8 C         139.3883  142.1084  161.7135 C.ar    1  UNL1        0.0000
      9 C         140.0799  141.1389  160.8015 C.ar    1  UNL1        0.0000
     10 C         140.8805  138.9401  157.7048 C.ar    1  UNL1        0.0000
     11 C         139.9106  137.8323  157.4184 C.ar    1  UNL1        0.0000
     12 C         139.9757  137.0974  156.1123 C.ar    1  UNL1        0.0000
     13 C         141.0107  137.4704  155.0927 C.ar    1  UNL1        0.0000
     14 F         141.0758  136.7355  153.7866 F       1  UNL1        0.0000
     15 C         141.9805  138.5782  155.3791 C.ar    1  UNL1        0.0000
     16 C         141.9154  139.3131  156.6851 C.ar    1  UNL1        0.0000
     17 C         137.4182  142.7192  156.9708 C.3     1  UNL1        0.0000
     18 N         138.6064  142.3127  157.7912 N.am    1  UNL1        0.0000
     19 C         138.5611  141.0525  158.6037 C.2     1  UNL1        0.0000
     20 O         137.3277  140.1990  158.5957 O.2     1  UNL1        0.0000
     21 H         139.4160  142.8729  157.7963 H       1  UNL1        0.0000
     22 C         139.2755  143.3812  163.9756 C.3     1  UNL1        0.0000
     23 C         138.0742  143.7744  164.7832 C.3     1  UNL1        0.0000
     24 C         139.2790  144.6673  164.7477 C.3     1  UNL1        0.0000
     25 N         141.8165  142.0487  164.8520 N.pl3   1  UNL1        0.0000
     26 C         141.0542  141.6891  166.0928 C.ar    1  UNL1        0.0000
     27 C         140.1393  140.5003  166.0928 C.ar    1  UNL1        0.0000
     28 C         139.3770  140.1406  167.3336 C.ar    1  UNL1        0.0000
     29 CL        138.4622  138.9519  167.3337 Cl      1  UNL1        0.0000
     30 C         139.5296  140.9697  168.5744 C.ar    1  UNL1        0.0000
     31 C         140.4444  142.1584  168.5743 C.ar    1  UNL1        0.0000
     32 C         141.2067  142.5181  167.3335 C.ar    1  UNL1        0.0000
     33 C         140.3923  142.7834  169.9369 C.3     1  UNL1        0.0000
     34 O         139.4453  141.9810  170.7790 O.3     1  UNL1        0.0000
     35 B         138.9121  140.8600  169.9369 B       1  UNL1        0.0000
     36 O         137.9332  139.8133  170.3797 O.3     1  UNL1        0.0000
     37 H         137.6905  139.9687  171.3059 H       1  UNL1        0.0000
     38 S         143.1575  142.7117  164.9614 S.O2    1  UNL1        0.0000
     39 C         144.4987  143.3746  165.0708 C.3     1  UNL1        0.0000
     40 O         142.5632  143.9959  164.4640 O.2     1  UNL1        0.0000
     41 O         143.7518  141.4274  165.4588 O.2     1  UNL1        0.0000
@<TRIPOS>BOND
     1    17    18    1
     2    18    19   am
     3    19    20    2
     4    19     1    1
     5     1     2   ar
     6     2    10    1
     7    10    11   ar
     8    11    12   ar
     9    12    13   ar
    10    13    14    1
    11    13    15   ar
    12    15    16   ar
    13     2     3   ar
    14     3     4   ar
    15     4     5   ar
    16     5     6   ar
    17     6    25    1
    18    25    26    1
    19    26    27   ar
    20    27    28   ar
    21    28    29    1
    22    28    30   ar
    23    30    31   ar
    24    31    32   ar
    25    31    33    1
    26    33    34    1
    27    34    35    1
    28    35    36    1
    29    25    38    1
    30    38    39    1
    31    38    40    2
    32    38    41    2
    33     6     7   ar
    34     7    22    1
    35    22    23    1
    36    23    24    1
    37     7     8   ar
    38     8     9   ar
    39     9     1   ar
    40    16    10   ar
    41     9     4   ar
    42    32    26   ar
    43    24    22    1
    44    35    30    1
    45    18    21    1
    46    36    37    1
@<TRIPOS>MOLECULE
*****
 41 46 0 0 0
SMALL
GASTEIGER

@<TRIPOS>ATOM
      1 C         142.5913  142.5347  159.9453 C.ar    1  UNL1        0.0000
      2 C         143.5604  141.4665  159.5332 C.ar    1  UNL1        0.0000
      3 O         143.4858  140.3589  160.5420 O.2     1  UNL1        0.0000
      4 C         142.4707  140.7426  161.5776 C.ar    1  UNL1        0.0000
      5 C         141.9784  140.0412  162.8086 C.ar    1  UNL1        0.0000
      6 C         140.9332  140.6846  163.6709 C.ar    1  UNL1        0.0000
      7 C         140.3803  142.0293  163.3021 C.ar    1  UNL1        0.0000
      8 C         140.8727  142.7307  162.0710 C.ar    1  UNL1        0.0000
      9 C         141.9178  142.0873  161.2087 C.ar    1  UNL1        0.0000
     10 C         144.4481  141.4999  158.3246 C.ar    1  UNL1        0.0000
     11 C         144.1858  140.5723  157.1754 C.ar    1  UNL1        0.0000
     12 C         145.0735  140.6058  155.9668 C.ar    1  UNL1        0.0000
     13 C         146.2235  141.5669  155.9073 C.ar    1  UNL1        0.0000
     14 F         147.1113  141.6004  154.6986 F       1  UNL1        0.0000
     15 C         146.4859  142.4945  157.0564 C.ar    1  UNL1        0.0000
     16 C         145.5981  142.4611  158.2651 C.ar    1  UNL1        0.0000
     17 C         142.0868  145.1431  156.9970 C.3     1  UNL1        0.0000
     18 N         142.3382  143.8538  157.7213 N.am    1  UNL1        0.0000
     19 C         142.3398  143.8240  159.2210 C.2     1  UNL1        0.0000
     20 O         142.0899  145.0834  159.9964 O.2     1  UNL1        0.0000
     21 H         142.5023  143.0272  157.2123 H       1  UNL1        0.0000
     22 C         139.3351  142.6727  164.1645 C.3     1  UNL1        0.0000
     23 C         138.9632  143.6181  165.2680 C.3     1  UNL1        0.0000
     24 C         137.8965  142.8417  164.5545 C.3     1  UNL1        0.0000
     25 N         140.4408  139.9832  164.9021 N.pl3   1  UNL1        0.0000
     26 C         140.7450  140.5467  166.2585 C.ar    1  UNL1        0.0000
     27 C         142.0379  141.2687  166.4980 C.ar    1  UNL1        0.0000
     28 C         142.3421  141.8322  167.8545 C.ar    1  UNL1        0.0000
     29 CL        143.6349  142.5541  168.0940 Cl      1  UNL1        0.0000
     30 C         141.3534  141.6738  168.9714 C.ar    1  UNL1        0.0000
     31 C         140.0606  140.9518  168.7319 C.ar    1  UNL1        0.0000
     32 C         139.7564  140.3883  167.3754 C.ar    1  UNL1        0.0000
     33 C         139.2852  140.9512  170.0160 C.3     1  UNL1        0.0000
     34 O         140.0989  141.6727  171.0491 O.3     1  UNL1        0.0000
     35 B         141.3771  142.1193  170.4035 B       1  UNL1        0.0000
     36 O         142.4846  142.8781  171.0725 O.3     1  UNL1        0.0000
     37 H         142.2506  143.0413  171.9997 H       1  UNL1        0.0000
     38 S         139.6442  138.7185  164.7768 S.O2    1  UNL1        0.0000
     39 C         138.8476  137.4536  164.6515 C.3     1  UNL1        0.0000
     40 O         138.4359  139.5179  164.3885 O.2     1  UNL1        0.0000
     41 O         140.8525  137.9190  165.1651 O.2     1  UNL1        0.0000
@<TRIPOS>BOND
     1    17    18    1
     2    18    19   am
     3    19    20    2
     4    19     1    1
     5     1     2   ar
     6     2    10    1
     7    10    11   ar
     8    11    12   ar
     9    12    13   ar
    10    13    14    1
    11    13    15   ar
    12    15    16   ar
    13     2     3   ar
    14     3     4   ar
    15     4     5   ar
    16     5     6   ar
    17     6    25    1
    18    25    26    1
    19    26    27   ar
    20    27    28   ar
    21    28    29    1
    22    28    30   ar
    23    30    31   ar
    24    31    32   ar
    25    31    33    1
    26    33    34    1
    27    34    35    1
    28    35    36    1
    29    25    38    1
    30    38    39    1
    31    38    40    2
    32    38    41    2
    33     6     7   ar
    34     7    22    1
    35    22    23    1
    36    23    24    1
    37     7     8   ar
    38     8     9   ar
    39     9     1   ar
    40    16    10   ar
    41     9     4   ar
    42    32    26   ar
    43    24    22    1
    44    35    30    1
    45    18    21    1
    46    36    37    1
@<TRIPOS>MOLECULE
*****
 41 46 0 0 0
SMALL
GASTEIGER

@<TRIPOS>ATOM
      1 C         139.4311  140.4532  158.8075 C.ar    1  UNL1        0.0000
      2 C         140.4423  139.4500  158.3373 C.ar    1  UNL1        0.0000
      3 O         141.3962  139.1898  159.4653 O.2     1  UNL1        0.0000
      4 C         140.9746  140.0323  160.6326 C.ar    1  UNL1        0.0000
      5 C         141.5397  140.1893  162.0132 C.ar    1  UNL1        0.0000
      6 C         140.8903  141.1271  162.9872 C.ar    1  UNL1        0.0000
      7 C         139.6758  141.9079  162.5806 C.ar    1  UNL1        0.0000
      8 C         139.1107  141.7509  161.2001 C.ar    1  UNL1        0.0000
      9 C         139.7601  140.8131  160.2261 C.ar    1  UNL1        0.0000
     10 C         140.4910  138.8179  156.9779 C.ar    1  UNL1        0.0000
     11 C         141.4144  139.3639  155.9295 C.ar    1  UNL1        0.0000
     12 C         141.4631  138.7318  154.5701 C.ar    1  UNL1        0.0000
     13 C         140.5883  137.5536  154.2590 C.ar    1  UNL1        0.0000
     14 F         140.6370  136.9215  152.8996 F       1  UNL1        0.0000
     15 C         139.6649  137.0076  155.3074 C.ar    1  UNL1        0.0000
     16 C         139.6162  137.6397  156.6668 C.ar    1  UNL1        0.0000
     17 C         137.3125  142.8386  156.4470 C.3     1  UNL1        0.0000
     18 N         138.4526  142.2913  157.2537 N.am    1  UNL1        0.0000
     19 C         138.2911  141.0005  158.0008 C.2     1  UNL1        0.0000
     20 O         136.9897  140.2572  157.9410 O.2     1  UNL1        0.0000
     21 H         139.3067  142.7792  157.2929 H       1  UNL1        0.0000
     22 C         139.0264  142.8458  163.5547 C.3     1  UNL1        0.0000
     23 C         137.9277  143.1503  164.5294 C.3     1  UNL1        0.0000
     24 C         139.0003  144.1656  164.2671 C.3     1  UNL1        0.0000
     25 N         141.4554  141.2841  164.3678 N.pl3   1  UNL1        0.0000
     26 C         140.6492  140.8628  165.5605 C.ar    1  UNL1        0.0000
     27 C         140.8713  141.5253  166.8879 C.ar    1  UNL1        0.0000
     28 C         140.0652  141.1039  168.0806 C.ar    1  UNL1        0.0000
     29 CL        140.2872  141.7663  169.4080 Cl      1  UNL1        0.0000
     30 C         139.0369  140.0201  167.9460 C.ar    1  UNL1        0.0000
     31 C         138.8148  139.3577  166.6186 C.ar    1  UNL1        0.0000
     32 C         139.6210  139.7790  165.4259 C.ar    1  UNL1        0.0000
     33 C         137.7390  138.3265  166.7895 C.3     1  UNL1        0.0000
     34 O         137.2961  138.3517  168.2224 O.3     1  UNL1        0.0000
     35 B         138.0983  139.3984  168.9371 B       1  UNL1        0.0000
     36 O         137.9823  139.7599  170.3883 O.3     1  UNL1        0.0000
     37 H         137.3013  139.2091  170.8052 H       1  UNL1        0.0000
     38 S         142.8265  141.8625  164.5557 S.O2    1  UNL1        0.0000
     39 C         144.1978  142.4409  164.7435 C.3     1  UNL1        0.0000
     40 O         143.3599  140.4961  164.8693 O.2     1  UNL1        0.0000
     41 O         142.2932  143.2289  164.2420 O.2     1  UNL1        0.0000
@<TRIPOS>BOND
     1    17    18    1
     2    18    19   am
     3    19    20    2
     4    19     1    1
     5     1     2   ar
     6     2    10    1
     7    10    11   ar
     8    11    12   ar
     9    12    13   ar
    10    13    14    1
    11    13    15   ar
    12    15    16   ar
    13     2     3   ar
    14     3     4   ar
    15     4     5   ar
    16     5     6   ar
    17     6    25    1
    18    25    26    1
    19    26    27   ar
    20    27    28   ar
    21    28    29    1
    22    28    30   ar
    23    30    31   ar
    24    31    32   ar
    25    31    33    1
    26    33    34    1
    27    34    35    1
    28    35    36    1
    29    25    38    1
    30    38    39    1
    31    38    40    2
    32    38    41    2
    33     6     7   ar
    34     7    22    1
    35    22    23    1
    36    23    24    1
    37     7     8   ar
    38     8     9   ar
    39     9     1   ar
    40    16    10   ar
    41     9     4   ar
    42    32    26   ar
    43    24    22    1
    44    35    30    1
    45    18    21    1
    46    36    37    1
@<TRIPOS>MOLECULE
*****
 41 46 0 0 0
SMALL
GASTEIGER

@<TRIPOS>ATOM
      1 C         140.8291  139.0714  161.7883 C.ar    1  UNL1        0.0000
      2 C         142.1337  139.1994  162.5173 C.ar    1  UNL1        0.0000
      3 O         143.2394  138.9366  161.5384 O.2     1  UNL1        0.0000
      4 C         142.6181  138.6461  160.2044 C.ar    1  UNL1        0.0000
      5 C         143.2164  138.3165  158.8690 C.ar    1  UNL1        0.0000
      6 C         142.3251  138.0702  157.6880 C.ar    1  UNL1        0.0000
      7 C         140.8354  138.1535  157.8424 C.ar    1  UNL1        0.0000
      8 C         140.2370  138.4831  159.1778 C.ar    1  UNL1        0.0000
      9 C         141.1284  138.7294  160.3588 C.ar    1  UNL1        0.0000
     10 C         142.3029  139.5319  163.9702 C.ar    1  UNL1        0.0000
     11 C         142.7073  138.4633  164.9420 C.ar    1  UNL1        0.0000
     12 C         142.8765  138.7958  166.3949 C.ar    1  UNL1        0.0000
     13 C         142.6413  140.1969  166.8759 C.ar    1  UNL1        0.0000
     14 F         142.8106  140.5294  168.3288 F       1  UNL1        0.0000
     15 C         142.2370  141.2656  165.9041 C.ar    1  UNL1        0.0000
     16 C         142.0678  140.9331  164.4513 C.ar    1  UNL1        0.0000
     17 C         137.5658  140.8159  163.2231 C.3     1  UNL1        0.0000
     18 N         138.9303  140.6339  162.6272 N.am    1  UNL1        0.0000
     19 C         139.4645  139.2534  162.3841 C.2     1  UNL1        0.0000
     20 O         138.6342  138.0551  162.7368 O.2     1  UNL1        0.0000
     21 H         139.4753  141.4204  162.3958 H       1  UNL1        0.0000
     22 C         139.9440  137.9072  156.6614 C.3     1  UNL1        0.0000
     23 C         139.1659  138.4290  155.4900 C.3     1  UNL1        0.0000
     24 C         139.1782  136.9589  155.7872 C.3     1  UNL1        0.0000
     25 N         142.9234  137.7406  156.3525 N.pl3   1  UNL1        0.0000
     26 C         142.6861  136.3937  155.7363 C.ar    1  UNL1        0.0000
     27 C         142.3565  136.2841  154.2770 C.ar    1  UNL1        0.0000
     28 C         142.1193  134.9373  153.6608 C.ar    1  UNL1        0.0000
     29 CL        141.7897  134.8277  152.2016 Cl      1  UNL1        0.0000
     30 C         142.2117  133.7000  154.5038 C.ar    1  UNL1        0.0000
     31 C         142.5413  133.8096  155.9630 C.ar    1  UNL1        0.0000
     32 C         142.7786  135.1565  156.5793 C.ar    1  UNL1        0.0000
     33 C         142.5637  132.4246  156.5385 C.3     1  UNL1        0.0000
     34 O         142.2479  131.4590  155.4349 O.3     1  UNL1        0.0000
     35 B         142.0304  132.2473  154.1774 B       1  UNL1        0.0000
     36 O         141.6910  131.6820  152.8301 O.3     1  UNL1        0.0000
     37 H         141.6315  130.7157  152.8905 H       1  UNL1        0.0000
     38 S         143.7588  138.7578  155.6333 S.O2    1  UNL1        0.0000
     39 C         144.5943  139.7750  154.9141 C.3     1  UNL1        0.0000
     40 O         142.5693  139.6664  155.5367 O.2     1  UNL1        0.0000
     41 O         144.9483  137.8491  155.7299 O.2     1  UNL1        0.0000
@<TRIPOS>BOND
     1    17    18    1
     2    18    19   am
     3    19    20    2
     4    19     1    1
     5     1     2   ar
     6     2    10    1
     7    10    11   ar
     8    11    12   ar
     9    12    13   ar
    10    13    14    1
    11    13    15   ar
    12    15    16   ar
    13     2     3   ar
    14     3     4   ar
    15     4     5   ar
    16     5     6   ar
    17     6    25    1
    18    25    26    1
    19    26    27   ar
    20    27    28   ar
    21    28    29    1
    22    28    30   ar
    23    30    31   ar
    24    31    32   ar
    25    31    33    1
    26    33    34    1
    27    34    35    1
    28    35    36    1
    29    25    38    1
    30    38    39    1
    31    38    40    2
    32    38    41    2
    33     6     7   ar
    34     7    22    1
    35    22    23    1
    36    23    24    1
    37     7     8   ar
    38     8     9   ar
    39     9     1   ar
    40    16    10   ar
    41     9     4   ar
    42    32    26   ar
    43    24    22    1
    44    35    30    1
    45    18    21    1
    46    36    37    1
@<TRIPOS>MOLECULE
*****
 41 46 0 0 0
SMALL
GASTEIGER

@<TRIPOS>ATOM
      1 C         142.0267  140.2790  159.3689 C.ar    1  UNL1        0.0000
      2 C         140.9262  139.2946  159.1046 C.ar    1  UNL1        0.0000
      3 O         139.9616  139.3589  160.2515 O.2     1  UNL1        0.0000
      4 C         140.4659  140.3831  161.2245 C.ar    1  UNL1        0.0000
      5 C         139.9279  140.8713  162.5368 C.ar    1  UNL1        0.0000
      6 C         140.6662  141.9282  163.3035 C.ar    1  UNL1        0.0000
      7 C         141.9425  142.4968  162.7580 C.ar    1  UNL1        0.0000
      8 C         142.4806  142.0086  161.4458 C.ar    1  UNL1        0.0000
      9 C         141.7423  140.9517  160.6790 C.ar    1  UNL1        0.0000
     10 C         140.8106  138.4025  157.9043 C.ar    1  UNL1        0.0000
     11 C         141.8977  137.4162  157.5953 C.ar    1  UNL1        0.0000
     12 C         141.7821  136.5241  156.3950 C.ar    1  UNL1        0.0000
     13 C         140.5794  136.6184  155.5036 C.ar    1  UNL1        0.0000
     14 F         140.4638  135.7263  154.3032 F       1  UNL1        0.0000
     15 C         139.4924  137.6047  155.8125 C.ar    1  UNL1        0.0000
     16 C         139.6080  138.4967  157.0128 C.ar    1  UNL1        0.0000
     17 C         144.3524  141.9596  156.6271 C.3     1  UNL1        0.0000
     18 N         143.1742  141.6945  157.5168 N.am    1  UNL1        0.0000
     19 C         143.2049  140.5441  158.4791 C.2     1  UNL1        0.0000
     20 O         144.4137  139.6591  158.5516 O.2     1  UNL1        0.0000
     21 H         142.3808  142.2754  157.4692 H       1  UNL1        0.0000
     22 C         142.6808  143.5537  163.5249 C.3     1  UNL1        0.0000
     23 C         143.5242  143.9572  164.6978 C.3     1  UNL1        0.0000
     24 C         143.1161  144.9807  163.6801 C.3     1  UNL1        0.0000
     25 N         140.1281  142.4164  164.6159 N.pl3   1  UNL1        0.0000
     26 C         140.7747  141.9850  165.8988 C.ar    1  UNL1        0.0000
     27 C         141.5579  140.7067  165.9511 C.ar    1  UNL1        0.0000
     28 C         142.2045  140.2753  167.2340 C.ar    1  UNL1        0.0000
     29 CL        142.9876  138.9971  167.2863 Cl      1  UNL1        0.0000
     30 C         142.0680  141.1222  168.4645 C.ar    1  UNL1        0.0000
     31 C         141.2848  142.4005  168.4121 C.ar    1  UNL1        0.0000
     32 C         140.6382  142.8319  167.1293 C.ar    1  UNL1        0.0000
     33 C         141.3229  143.0236  169.7761 C.3     1  UNL1        0.0000
     34 O         142.1296  142.1304  170.6713 O.3     1  UNL1        0.0000
     35 B         142.5901  140.9553  169.8607 B       1  UNL1        0.0000
     36 O         143.4259  139.8137  170.3589 O.3     1  UNL1        0.0000
     37 H         143.6293  139.9476  171.2979 H       1  UNL1        0.0000
     38 S         138.9435  143.3361  164.6453 S.O2    1  UNL1        0.0000
     39 C         137.7588  144.2558  164.6747 C.3     1  UNL1        0.0000
     40 O         138.0366  142.1609  164.8608 O.2     1  UNL1        0.0000
     41 O         139.8504  144.5112  164.4298 O.2     1  UNL1        0.0000
@<TRIPOS>BOND
     1    17    18    1
     2    18    19   am
     3    19    20    2
     4    19     1    1
     5     1     2   ar
     6     2    10    1
     7    10    11   ar
     8    11    12   ar
     9    12    13   ar
    10    13    14    1
    11    13    15   ar
    12    15    16   ar
    13     2     3   ar
    14     3     4   ar
    15     4     5   ar
    16     5     6   ar
    17     6    25    1
    18    25    26    1
    19    26    27   ar
    20    27    28   ar
    21    28    29    1
    22    28    30   ar
    23    30    31   ar
    24    31    32   ar
    25    31    33    1
    26    33    34    1
    27    34    35    1
    28    35    36    1
    29    25    38    1
    30    38    39    1
    31    38    40    2
    32    38    41    2
    33     6     7   ar
    34     7    22    1
    35    22    23    1
    36    23    24    1
    37     7     8   ar
    38     8     9   ar
    39     9     1   ar
    40    16    10   ar
    41     9     4   ar
    42    32    26   ar
    43    24    22    1
    44    35    30    1
    45    18    21    1
    46    36    37    1
@<TRIPOS>MOLECULE
*****
 41 46 0 0 0
SMALL
GASTEIGER

@<TRIPOS>ATOM
      1 C         142.1792  139.5548  158.7686 C.ar    1  UNL1        0.0000
      2 C         142.9952  140.7102  158.2694 C.ar    1  UNL1        0.0000
      3 O         143.0312  141.7523  159.3477 O.2     1  UNL1        0.0000
      4 C         142.2374  141.2409  160.5132 C.ar    1  UNL1        0.0000
      5 C         141.9261  141.8366  161.8542 C.ar    1  UNL1        0.0000
      6 C         141.0882  141.0740  162.8373 C.ar    1  UNL1        0.0000
      7 C         140.5617  139.7158  162.4793 C.ar    1  UNL1        0.0000
      8 C         140.8730  139.1202  161.1384 C.ar    1  UNL1        0.0000
      9 C         141.7109  139.8828  160.1553 C.ar    1  UNL1        0.0000
     10 C         143.6587  140.8066  156.9276 C.ar    1  UNL1        0.0000
     11 C         145.1487  140.6741  156.8164 C.ar    1  UNL1        0.0000
     12 C         145.8122  140.7705  155.4746 C.ar    1  UNL1        0.0000
     13 C         144.9857  140.9993  154.2439 C.ar    1  UNL1        0.0000
     14 F         145.6492  141.0957  152.9021 F       1  UNL1        0.0000
     15 C         143.4957  141.1318  154.3551 C.ar    1  UNL1        0.0000
     16 C         142.8322  141.0354  155.6969 C.ar    1  UNL1        0.0000
     17 C         142.7095  136.1283  156.8375 C.3     1  UNL1        0.0000
     18 N         143.0053  137.3903  157.5925 N.am    1  UNL1        0.0000
     19 C         141.8835  138.2928  158.0135 C.2     1  UNL1        0.0000
     20 O         140.4661  137.9333  157.6795 O.2     1  UNL1        0.0000
     21 H         143.9356  137.6262  157.8118 H       1  UNL1        0.0000
     22 C         139.7238  138.9533  163.4625 C.3     1  UNL1        0.0000
     23 C         139.5031  137.7383  164.3139 C.3     1  UNL1        0.0000
     24 C         138.4933  138.8475  164.3138 C.3     1  UNL1        0.0000
     25 N         140.7769  141.6696  164.1783 N.pl3   1  UNL1        0.0000
     26 C         141.1593  140.9382  165.4308 C.ar    1  UNL1        0.0000
     27 C         142.3634  140.0437  165.4390 C.ar    1  UNL1        0.0000
     28 C         142.7458  139.3122  166.6916 C.ar    1  UNL1        0.0000
     29 CL        143.9498  138.4177  166.6998 Cl      1  UNL1        0.0000
     30 C         141.9240  139.4754  167.9359 C.ar    1  UNL1        0.0000
     31 C         140.7200  140.3699  167.9276 C.ar    1  UNL1        0.0000
     32 C         140.3376  141.1013  166.6751 C.ar    1  UNL1        0.0000
     33 C         140.1068  140.3342  169.2961 C.3     1  UNL1        0.0000
     34 O         140.9318  139.4177  170.1500 O.3     1  UNL1        0.0000
     35 B         142.0550  138.8869  169.3094 B       1  UNL1        0.0000
     36 O         143.1217  137.9347  169.7626 O.3     1  UNL1        0.0000
     37 H         142.9777  137.7078  170.6947 H       1  UNL1        0.0000
     38 S         140.0832  142.9966  164.2668 S.O2    1  UNL1        0.0000
     39 C         139.3895  144.3236  164.3553 C.3     1  UNL1        0.0000
     40 O         138.8103  142.3630  163.7890 O.2     1  UNL1        0.0000
     41 O         141.3560  143.6302  164.7446 O.2     1  UNL1        0.0000
@<TRIPOS>BOND
     1    17    18    1
     2    18    19   am
     3    19    20    2
     4    19     1    1
     5     1     2   ar
     6     2    10    1
     7    10    11   ar
     8    11    12   ar
     9    12    13   ar
    10    13    14    1
    11    13    15   ar
    12    15    16   ar
    13     2     3   ar
    14     3     4   ar
    15     4     5   ar
    16     5     6   ar
    17     6    25    1
    18    25    26    1
    19    26    27   ar
    20    27    28   ar
    21    28    29    1
    22    28    30   ar
    23    30    31   ar
    24    31    32   ar
    25    31    33    1
    26    33    34    1
    27    34    35    1
    28    35    36    1
    29    25    38    1
    30    38    39    1
    31    38    40    2
    32    38    41    2
    33     6     7   ar
    34     7    22    1
    35    22    23    1
    36    23    24    1
    37     7     8   ar
    38     8     9   ar
    39     9     1   ar
    40    16    10   ar
    41     9     4   ar
    42    32    26   ar
    43    24    22    1
    44    35    30    1
    45    18    21    1
    46    36    37    1
@<TRIPOS>MOLECULE
*****
 41 46 0 0 0
SMALL
GASTEIGER

@<TRIPOS>ATOM
      1 C         139.4726  140.7621  158.6670 C.ar    1  UNL1        0.0000
      2 C         138.4900  141.8667  158.4135 C.ar    1  UNL1        0.0000
      3 O         138.4858  142.7675  159.6128 O.2     1  UNL1        0.0000
      4 C         139.4657  142.2197  160.6075 C.ar    1  UNL1        0.0000
      5 C         139.8815  142.6893  161.9701 C.ar    1  UNL1        0.0000
      6 C         140.9072  141.9195  162.7480 C.ar    1  UNL1        0.0000
      7 C         141.5171  140.6800  162.1634 C.ar    1  UNL1        0.0000
      8 C         141.1013  140.2104  160.8009 C.ar    1  UNL1        0.0000
      9 C         140.0756  140.9802  160.0230 C.ar    1  UNL1        0.0000
     10 C         137.6577  142.0400  157.1776 C.ar    1  UNL1        0.0000
     11 C         136.6113  141.0233  156.8294 C.ar    1  UNL1        0.0000
     12 C         135.7791  141.1967  155.5935 C.ar    1  UNL1        0.0000
     13 C         135.9932  142.3867  154.7059 C.ar    1  UNL1        0.0000
     14 F         135.1610  142.5600  153.4701 F       1  UNL1        0.0000
     15 C         137.0396  143.4034  155.0542 C.ar    1  UNL1        0.0000
     16 C         137.8718  143.2301  156.2900 C.ar    1  UNL1        0.0000
     17 C         140.9403  138.7709  155.5635 C.3     1  UNL1        0.0000
     18 N         140.6174  139.8961  156.5013 N.am    1  UNL1        0.0000
     19 C         139.7955  139.6368  157.7291 C.2     1  UNL1        0.0000
     20 O         139.2966  138.2523  158.0189 O.2     1  UNL1        0.0000
     21 H         140.9449  140.8049  156.3111 H       1  UNL1        0.0000
     22 C         142.5428  139.9101  162.9415 C.3     1  UNL1        0.0000
     23 C         142.8989  139.0169  164.0927 C.3     1  UNL1        0.0000
     24 C         143.9633  139.4700  163.1378 C.3     1  UNL1        0.0000
     25 N         141.3230  142.3891  164.1106 N.pl3   1  UNL1        0.0000
     26 C         140.7223  141.7644  165.3349 C.ar    1  UNL1        0.0000
     27 C         141.1264  142.2448  166.6973 C.ar    1  UNL1        0.0000
     28 C         140.5257  141.6201  167.9215 C.ar    1  UNL1        0.0000
     29 CL        140.9297  142.1004  169.2838 Cl      1  UNL1        0.0000
     30 C         139.5208  140.5149  167.7834 C.ar    1  UNL1        0.0000
     31 C         139.1167  140.0346  166.4211 C.ar    1  UNL1        0.0000
     32 C         139.7174  140.6593  165.1968 C.ar    1  UNL1        0.0000
     33 C         138.1102  138.9364  166.5966 C.3     1  UNL1        0.0000
     34 O         137.8922  138.7380  168.0673 O.3     1  UNL1        0.0000
     35 B         138.7640  139.7136  168.8008 B       1  UNL1        0.0000
     36 O         138.8619  139.8619  170.2903 O.3     1  UNL1        0.0000
     37 H         138.2694  139.2242  170.7183 H       1  UNL1        0.0000
     38 S         142.3396  143.4833  164.2489 S.O2    1  UNL1        0.0000
     39 C         143.3562  144.5777  164.3872 C.3     1  UNL1        0.0000
     40 O         143.4262  142.4575  164.3789 O.2     1  UNL1        0.0000
     41 O         141.2530  144.5092  164.1190 O.2     1  UNL1        0.0000
@<TRIPOS>BOND
     1    17    18    1
     2    18    19   am
     3    19    20    2
     4    19     1    1
     5     1     2   ar
     6     2    10    1
     7    10    11   ar
     8    11    12   ar
     9    12    13   ar
    10    13    14    1
    11    13    15   ar
    12    15    16   ar
    13     2     3   ar
    14     3     4   ar
    15     4     5   ar
    16     5     6   ar
    17     6    25    1
    18    25    26    1
    19    26    27   ar
    20    27    28   ar
    21    28    29    1
    22    28    30   ar
    23    30    31   ar
    24    31    32   ar
    25    31    33    1
    26    33    34    1
    27    34    35    1
    28    35    36    1
    29    25    38    1
    30    38    39    1
    31    38    40    2
    32    38    41    2
    33     6     7   ar
    34     7    22    1
    35    22    23    1
    36    23    24    1
    37     7     8   ar
    38     8     9   ar
    39     9     1   ar
    40    16    10   ar
    41     9     4   ar
    42    32    26   ar
    43    24    22    1
    44    35    30    1
    45    18    21    1
    46    36    37    1
@<TRIPOS>MOLECULE
*****
 41 46 0 0 0
SMALL
GASTEIGER

@<TRIPOS>ATOM
      1 C         141.8230  140.3980  159.0078 C.ar    1  UNL1        0.0000
      2 C         140.4409  139.9495  158.6353 C.ar    1  UNL1        0.0000
      3 O         139.5279  140.2580  159.7847 O.2     1  UNL1        0.0000
      4 C         140.3457  140.8971  160.8677 C.ar    1  UNL1        0.0000
      5 C         139.9820  141.4115  162.2289 C.ar    1  UNL1        0.0000
      6 C         141.0368  142.0124  163.1100 C.ar    1  UNL1        0.0000
      7 C         142.4552  142.0989  162.6299 C.ar    1  UNL1        0.0000
      8 C         142.8189  141.5845  161.2686 C.ar    1  UNL1        0.0000
      9 C         141.7642  140.9836  160.3875 C.ar    1  UNL1        0.0000
     10 C         140.0420  139.3055  157.3406 C.ar    1  UNL1        0.0000
     11 C         139.7634  140.1541  156.1355 C.ar    1  UNL1        0.0000
     12 C         139.3644  139.5101  154.8408 C.ar    1  UNL1        0.0000
     13 C         139.2440  138.0177  154.7513 C.ar    1  UNL1        0.0000
     14 F         138.8450  137.3738  153.4566 F       1  UNL1        0.0000
     15 C         139.5225  137.1692  155.9564 C.ar    1  UNL1        0.0000
     16 C         139.9215  137.8131  157.2511 C.ar    1  UNL1        0.0000
     17 C         145.0071  141.3998  156.8611 C.3     1  UNL1        0.0000
     18 N         143.7813  141.5165  157.7178 N.am    1  UNL1        0.0000
     19 C         143.0487  140.2812  158.1511 C.2     1  UNL1        0.0000
     20 O         143.5420  138.9295  157.7277 O.2     1  UNL1        0.0000
     21 H         143.4576  142.4037  157.9957 H       1  UNL1        0.0000
     22 C         143.5100  142.6999  163.5111 C.3     1  UNL1        0.0000
     23 C         144.1741  143.9069  164.1043 C.3     1  UNL1        0.0000
     24 C         144.6727  142.5336  164.4440 C.3     1  UNL1        0.0000
     25 N         140.6731  142.5269  164.4714 N.pl3   1  UNL1        0.0000
     26 C         141.2817  141.9074  165.6944 C.ar    1  UNL1        0.0000
     27 C         141.3915  142.7019  166.9620 C.ar    1  UNL1        0.0000
     28 C         142.0001  142.0825  168.1851 C.ar    1  UNL1        0.0000
     29 CL        142.1098  142.8769  169.4527 Cl      1  UNL1        0.0000
     30 C         142.4990  140.6685  168.1405 C.ar    1  UNL1        0.0000
     31 C         142.3892  139.8741  166.8730 C.ar    1  UNL1        0.0000
     32 C         141.7806  140.4935  165.6499 C.ar    1  UNL1        0.0000
     33 C         142.9634  138.5121  167.1284 C.3     1  UNL1        0.0000
     34 O         143.4280  138.4648  168.5538 O.3     1  UNL1        0.0000
     35 B         143.1410  139.7976  169.1794 B       1  UNL1        0.0000
     36 O         143.4429  140.1904  170.5952 O.3     1  UNL1        0.0000
     37 H         143.8581  139.4447  171.0561 H       1  UNL1        0.0000
     38 S         139.7008  143.6607  164.6096 S.O2    1  UNL1        0.0000
     39 C         138.7286  144.7946  164.7478 C.3     1  UNL1        0.0000
     40 O         138.6352  142.6950  165.0359 O.2     1  UNL1        0.0000
     41 O         140.7665  144.6264  164.1833 O.2     1  UNL1        0.0000
@<TRIPOS>BOND
     1    17    18    1
     2    18    19   am
     3    19    20    2
     4    19     1    1
     5     1     2   ar
     6     2    10    1
     7    10    11   ar
     8    11    12   ar
     9    12    13   ar
    10    13    14    1
    11    13    15   ar
    12    15    16   ar
    13     2     3   ar
    14     3     4   ar
    15     4     5   ar
    16     5     6   ar
    17     6    25    1
    18    25    26    1
    19    26    27   ar
    20    27    28   ar
    21    28    29    1
    22    28    30   ar
    23    30    31   ar
    24    31    32   ar
    25    31    33    1
    26    33    34    1
    27    34    35    1
    28    35    36    1
    29    25    38    1
    30    38    39    1
    31    38    40    2
    32    38    41    2
    33     6     7   ar
    34     7    22    1
    35    22    23    1
    36    23    24    1
    37     7     8   ar
    38     8     9   ar
    39     9     1   ar
    40    16    10   ar
    41     9     4   ar
    42    32    26   ar
    43    24    22    1
    44    35    30    1
    45    18    21    1
    46    36    37    1
@<TRIPOS>MOLECULE
*****
 41 46 0 0 0
SMALL
GASTEIGER

@<TRIPOS>ATOM
      1 C         139.5031  140.7878  162.1894 C.ar    1  UNL1        0.0000
      2 C         140.0331  139.8199  163.2054 C.ar    1  UNL1        0.0000
      3 O         140.9756  138.8849  162.5072 O.2     1  UNL1        0.0000
      4 C         141.0280  139.2749  161.0597 C.ar    1  UNL1        0.0000
      5 C         141.7869  138.7111  159.8952 C.ar    1  UNL1        0.0000
      6 C         141.6357  139.3234  158.5342 C.ar    1  UNL1        0.0000
      7 C         140.7256  140.4994  158.3378 C.ar    1  UNL1        0.0000
      8 C         139.9667  141.0633  159.5024 C.ar    1  UNL1        0.0000
      9 C         140.1180  140.4510  160.8633 C.ar    1  UNL1        0.0000
     10 C         139.6823  139.7919  164.6635 C.ar    1  UNL1        0.0000
     11 C         140.4600  140.6256  165.6382 C.ar    1  UNL1        0.0000
     12 C         140.1092  140.5976  167.0963 C.ar    1  UNL1        0.0000
     13 C         138.9807  139.7359  167.5798 C.ar    1  UNL1        0.0000
     14 F         138.6299  139.7079  169.0379 F       1  UNL1        0.0000
     15 C         138.2030  138.9022  166.6051 C.ar    1  UNL1        0.0000
     16 C         138.5538  138.9302  165.1470 C.ar    1  UNL1        0.0000
     17 C         138.0510  144.4096  162.9133 C.3     1  UNL1        0.0000
     18 N         139.0249  143.2998  162.6495 N.am    1  UNL1        0.0000
     19 C         138.5291  141.8977  162.4532 C.2     1  UNL1        0.0000
     20 O         137.0595  141.6056  162.5207 O.2     1  UNL1        0.0000
     21 H         139.9896  143.4915  162.6052 H       1  UNL1        0.0000
     22 C         140.5744  141.1117  156.9768 C.3     1  UNL1        0.0000
     23 C         139.7763  141.3078  155.7220 C.3     1  UNL1        0.0000
     24 C         141.1105  141.9761  155.8743 C.3     1  UNL1        0.0000
     25 N         142.3945  138.7596  157.3696 N.pl3   1  UNL1        0.0000
     26 C         143.5068  139.5495  156.7460 C.ar    1  UNL1        0.0000
     27 C         143.8870  139.3086  155.3150 C.ar    1  UNL1        0.0000
     28 C         144.9993  140.0986  154.6914 C.ar    1  UNL1        0.0000
     29 CL        145.3795  139.8578  153.2606 Cl      1  UNL1        0.0000
     30 C         145.7313  141.1293  155.4988 C.ar    1  UNL1        0.0000
     31 C         145.3511  141.3701  156.9296 C.ar    1  UNL1        0.0000
     32 C         144.2389  140.5802  157.5532 C.ar    1  UNL1        0.0000
     33 C         146.2463  142.4442  157.4726 C.3     1  UNL1        0.0000
     34 O         147.1798  142.8672  156.3774 O.3     1  UNL1        0.0000
     35 B         146.8615  142.0546  155.1574 B       1  UNL1        0.0000
     36 O         147.5522  142.1503  153.8293 O.3     1  UNL1        0.0000
     37 H         148.2468  142.8259  153.8741 H       1  UNL1        0.0000
     38 S         142.0411  137.4059  156.8286 S.O2    1  UNL1        0.0000
     39 C         141.6877  136.0522  156.2876 C.3     1  UNL1        0.0000
     40 O         143.2403  136.8195  157.5127 O.2     1  UNL1        0.0000
     41 O         140.8420  137.9924  156.1446 O.2     1  UNL1        0.0000
@<TRIPOS>BOND
     1    17    18    1
     2    18    19   am
     3    19    20    2
     4    19     1    1
     5     1     2   ar
     6     2    10    1
     7    10    11   ar
     8    11    12   ar
     9    12    13   ar
    10    13    14    1
    11    13    15   ar
    12    15    16   ar
    13     2     3   ar
    14     3     4   ar
    15     4     5   ar
    16     5     6   ar
    17     6    25    1
    18    25    26    1
    19    26    27   ar
    20    27    28   ar
    21    28    29    1
    22    28    30   ar
    23    30    31   ar
    24    31    32   ar
    25    31    33    1
    26    33    34    1
    27    34    35    1
    28    35    36    1
    29    25    38    1
    30    38    39    1
    31    38    40    2
    32    38    41    2
    33     6     7   ar
    34     7    22    1
    35    22    23    1
    36    23    24    1
    37     7     8   ar
    38     8     9   ar
    39     9     1   ar
    40    16    10   ar
    41     9     4   ar
    42    32    26   ar
    43    24    22    1
    44    35    30    1
    45    18    21    1
    46    36    37    1
