@<TRIPOS>MOLECULE
*****
 39 43 0 0 0
SMALL
GASTEIGER

@<TRIPOS>ATOM
      1 N         140.6136  138.9583  162.7992 N.ar    1  UNL1       -0.3063
      2 C         139.7640  139.9111  163.5868 C.ar    1  UNL1        0.1240
      3 C         139.3339  141.0164  162.6685 C.ar    1  UNL1        0.1156
      4 C         139.9175  140.7466  161.3133 C.ar    1  UNL1        0.0966
      5 C         140.7084  139.4747  161.3941 C.ar    1  UNL1        0.1349
      6 C         141.4128  138.9509  160.1777 C.ar    1  UNL1        0.2819
      7 O         142.2036  137.6789  160.2585 O.2     1  UNL1       -0.2652
      8 N         141.3262  139.6992  158.8805 N.ar    1  UNL1       -0.2417
      9 C         140.5353  140.9712  158.7998 C.ar    1  UNL1        0.3342
     10 O         140.4488  141.7195  157.5027 O.2     1  UNL1       -0.2462
     11 N         139.8310  141.4949  160.0162 N.ar    1  UNL1       -0.2770
     12 C         139.0401  142.7669  159.9354 C.3     1  UNL1        0.1351
     13 N         139.4074  139.7814  165.0381 N.pl3   1  UNL1       -0.2926
     14 C         140.1045  140.6292  166.0604 C.3     1  UNL1        0.0922
     15 C         139.7478  140.4995  167.5116 C.3     1  UNL1        0.0229
     16 C         138.6939  139.5220  167.9404 C.3     1  UNL1        0.0190
     17 C         137.9968  138.6743  166.9181 C.3     1  UNL1        0.0709
     18 N         136.9429  137.6968  167.3469 N.3     1  UNL1       -0.3208
     19 C         138.3535  138.8040  165.4669 C.3     1  UNL1        0.1075
     20 H         136.8300  137.7410  168.3597 H       1  UNL1        0.1189
     21 H         137.2235  136.7541  167.0769 H       1  UNL1        0.1189
     22 C         138.4715  142.1861  163.0401 C.1     1  UNL1        0.1047
     23 N         137.6091  143.3558  163.4117 N.1     1  UNL1       -0.1907
     24 C         141.2555  137.7085  163.3244 C.3     1  UNL1        0.1332
     25 C         143.5301  138.3902  166.5043 C.3     1  UNL1        0.0261
     26 C         143.0109  138.4325  165.0977 C.2     1  UNL1       -0.0460
     27 C         143.7280  139.2413  164.0576 C.3     1  UNL1        0.0261
     28 C         141.7747  137.6661  164.7311 C.2     1  UNL1       -0.0102
     29 C         142.0306  139.1755  157.6642 C.3     1  UNL1        0.1593
     30 C         141.2905  138.3201  156.6790 C.ar    1  UNL1        0.0821
     31 N         140.1226  138.8836  155.9251 N.ar    1  UNL1       -0.2462
     32 C         139.3825  138.0281  154.9400 C.ar    1  UNL1        0.0985
     33 C         139.8103  136.6092  154.7088 C.ar    1  UNL1        0.0207
     34 C         140.9782  136.0456  155.4628 C.ar    1  UNL1        0.0027
     35 C         141.4060  134.6266  155.2316 C.ar    1  UNL1        0.0001
     36 C         142.5738  134.0631  155.9855 C.ar    1  UNL1        0.0000
     37 C         143.3139  134.9185  156.9707 C.ar    1  UNL1        0.0000
     38 C         142.8861  136.3375  157.2018 C.ar    1  UNL1        0.0012
     39 C         141.7183  136.9010  156.4479 C.ar    1  UNL1        0.0155
@<TRIPOS>BOND
     1    25    26    1
     2    26    27    1
     3    26    28    2
     4    28    24    1
     5    24     1    1
     6     1     2   ar
     7     2    13    1
     8    13    14    1
     9    14    15    1
    10    15    16    1
    11    16    17    1
    12    17    18    1
    13    17    19    1
    14     2     3   ar
    15     3    22    1
    16    22    23    3
    17     3     4   ar
    18     4     5   ar
    19     5     6   ar
    20     6     7    2
    21     6     8   ar
    22     8    29    1
    23    29    30    1
    24    30    31   ar
    25    31    32   ar
    26    32    33   ar
    27    33    34   ar
    28    34    35   ar
    29    35    36   ar
    30    36    37   ar
    31    37    38   ar
    32    38    39   ar
    33     8     9   ar
    34     9    10    2
    35     9    11   ar
    36    11    12    1
    37     5     1   ar
    38    39    30   ar
    39    19    13    1
    40    11     4   ar
    41    39    34   ar
    42    18    20    1
    43    18    21    1
@<TRIPOS>MOLECULE
*****
 39 43 0 0 0
SMALL
GASTEIGER

@<TRIPOS>ATOM
      1 N         142.2647  141.4491  164.7976 N.ar    1  UNL1       -0.3063
      2 C         141.1425  142.0894  165.5597 C.ar    1  UNL1        0.1240
      3 C         140.6102  143.2237  164.7350 C.ar    1  UNL1        0.1156
      4 C         141.4033  143.2843  163.4633 C.ar    1  UNL1        0.0966
      5 C         142.4258  142.1876  163.5020 C.ar    1  UNL1        0.1349
      6 C         143.3716  142.0030  162.3524 C.ar    1  UNL1        0.2819
      7 O         144.3941  140.9062  162.3911 O.2     1  UNL1       -0.2652
      8 N         143.2948  142.9152  161.1641 N.ar    1  UNL1       -0.2417
      9 C         142.2722  144.0120  161.1255 C.ar    1  UNL1        0.3342
     10 O         142.1954  144.9243  159.9372 O.2     1  UNL1       -0.2462
     11 N         141.3265  144.1966  162.2750 N.ar    1  UNL1       -0.2770
     12 C         140.3040  145.2933  162.2363 C.3     1  UNL1        0.1351
     13 N         140.6408  141.6693  166.9094 N.pl3   1  UNL1       -0.2926
     14 C         139.7755  140.4513  167.0422 C.3     1  UNL1        0.0922
     15 C         139.2738  140.0312  168.3919 C.3     1  UNL1        0.0229
     16 C         139.6375  140.8291  169.6089 C.3     1  UNL1        0.0190
     17 C         140.5029  142.0471  169.4762 C.3     1  UNL1        0.0709
     18 N         140.8666  142.8449  170.6932 N.3     1  UNL1       -0.3208
     19 C         141.0045  142.4672  168.1264 C.3     1  UNL1        0.1075
     20 H         140.4430  142.4195  171.5178 H       1  UNL1        0.1189
     21 H         140.5232  143.7997  170.5889 H       1  UNL1        0.1189
     22 C         139.4827  144.1370  165.1153 C.1     1  UNL1        0.1047
     23 N         138.3552  145.0504  165.4955 N.1     1  UNL1       -0.1907
     24 C         143.0821  140.2761  165.2514 C.3     1  UNL1        0.1332
     25 C         141.1778  136.8477  164.6437 C.3     1  UNL1        0.0261
     26 C         141.8411  138.1668  164.3793 C.2     1  UNL1       -0.0460
     27 C         141.9267  138.6957  162.9782 C.3     1  UNL1        0.0261
     28 C         142.4188  138.9570  165.5158 C.2     1  UNL1       -0.0102
     29 C         144.2405  142.7307  160.0146 C.3     1  UNL1        0.1593
     30 C         143.9539  141.6970  158.9661 C.ar    1  UNL1        0.0821
     31 N         142.7687  140.7893  159.1120 N.ar    1  UNL1       -0.2462
     32 C         142.4821  139.7556  158.0635 C.ar    1  UNL1        0.0985
     33 C         143.3806  139.6296  156.8691 C.ar    1  UNL1        0.0207
     34 C         144.5659  140.5374  156.7231 C.ar    1  UNL1        0.0027
     35 C         145.4645  140.4114  155.5287 C.ar    1  UNL1        0.0001
     36 C         146.6497  141.3191  155.3828 C.ar    1  UNL1        0.0000
     37 C         146.9363  142.3528  156.4313 C.ar    1  UNL1        0.0000
     38 C         146.0377  142.4787  157.6257 C.ar    1  UNL1        0.0012
     39 C         144.8525  141.5710  157.7716 C.ar    1  UNL1        0.0155
@<TRIPOS>BOND
     1    25    26    1
     2    26    27    1
     3    26    28    2
     4    28    24    1
     5    24     1    1
     6     1     2   ar
     7     2    13    1
     8    13    14    1
     9    14    15    1
    10    15    16    1
    11    16    17    1
    12    17    18    1
    13    17    19    1
    14     2     3   ar
    15     3    22    1
    16    22    23    3
    17     3     4   ar
    18     4     5   ar
    19     5     6   ar
    20     6     7    2
    21     6     8   ar
    22     8    29    1
    23    29    30    1
    24    30    31   ar
    25    31    32   ar
    26    32    33   ar
    27    33    34   ar
    28    34    35   ar
    29    35    36   ar
    30    36    37   ar
    31    37    38   ar
    32    38    39   ar
    33     8     9   ar
    34     9    10    2
    35     9    11   ar
    36    11    12    1
    37     5     1   ar
    38    39    30   ar
    39    19    13    1
    40    11     4   ar
    41    39    34   ar
    42    18    20    1
    43    18    21    1
@<TRIPOS>MOLECULE
*****
 39 43 0 0 0
SMALL
GASTEIGER

@<TRIPOS>ATOM
      1 N         141.8231  142.1788  165.6901 N.ar    1  UNL1       -0.3063
      2 C         141.0453  141.1337  166.4336 C.ar    1  UNL1        0.1240
      3 C         139.7910  140.8521  165.6607 C.ar    1  UNL1        0.1156
      4 C         139.7937  141.7230  164.4394 C.ar    1  UNL1        0.0966
      5 C         141.0496  142.5430  164.4577 C.ar    1  UNL1        0.1349
      6 C         141.3266  143.5154  163.3496 C.ar    1  UNL1        0.2819
      7 O         142.5825  144.3353  163.3678 O.2     1  UNL1       -0.2652
      8 N         140.3477  143.6678  162.2233 N.ar    1  UNL1       -0.2417
      9 C         139.0917  142.8478  162.2052 C.ar    1  UNL1        0.3342
     10 O         138.1128  143.0002  161.0789 O.2     1  UNL1       -0.2462
     11 N         138.8147  141.8755  163.3132 N.ar    1  UNL1       -0.2770
     12 C         137.5588  141.0555  163.2950 C.3     1  UNL1        0.1351
     13 N         141.4506  140.4843  167.7236 N.pl3   1  UNL1       -0.2926
     14 C         142.5039  139.4164  167.7272 C.3     1  UNL1        0.0922
     15 C         142.9092  138.7671  169.0172 C.3     1  UNL1        0.0229
     16 C         142.2611  139.1856  170.3036 C.3     1  UNL1        0.0190
     17 C         141.2077  140.2534  170.3000 C.3     1  UNL1        0.0709
     18 N         140.5596  140.6720  171.5864 N.3     1  UNL1       -0.3208
     19 C         140.8025  140.9028  169.0100 C.3     1  UNL1        0.1075
     20 H         140.9526  140.1312  172.3568 H       1  UNL1        0.1189
     21 H         139.5549  140.5045  171.5312 H       1  UNL1        0.1189
     22 C         138.7218  139.8716  166.0419 C.1     1  UNL1        0.1047
     23 N         137.6524  138.8911  166.4232 N.1     1  UNL1       -0.1907
     24 C         143.1428  142.7579  166.1060 C.3     1  UNL1        0.1332
     25 C         145.8696  141.7028  163.4224 C.3     1  UNL1        0.0261
     26 C         144.7448  141.6134  164.4108 C.2     1  UNL1       -0.0460
     27 C         144.0973  140.2899  164.6924 C.3     1  UNL1        0.0261
     28 C         144.2676  142.8473  165.1176 C.2     1  UNL1       -0.0102
     29 C         140.6246  144.6401  161.1153 C.3     1  UNL1        0.1593
     30 C         141.5292  144.2503  159.9840 C.ar    1  UNL1        0.0821
     31 N         142.6363  143.2648  160.2144 N.ar    1  UNL1       -0.2462
     32 C         143.5409  142.8750  159.0831 C.ar    1  UNL1        0.0985
     33 C         143.3383  143.4707  157.7215 C.ar    1  UNL1        0.0207
     34 C         142.2312  144.4563  157.4911 C.ar    1  UNL1        0.0027
     35 C         142.0287  145.0519  156.1294 C.ar    1  UNL1        0.0001
     36 C         140.9216  146.0374  155.8991 C.ar    1  UNL1        0.0000
     37 C         140.0170  146.4272  157.0303 C.ar    1  UNL1        0.0000
     38 C         140.2195  145.8316  158.3920 C.ar    1  UNL1        0.0012
     39 C         141.3266  144.8461  158.6223 C.ar    1  UNL1        0.0155
@<TRIPOS>BOND
     1    25    26    1
     2    26    27    1
     3    26    28    2
     4    28    24    1
     5    24     1    1
     6     1     2   ar
     7     2    13    1
     8    13    14    1
     9    14    15    1
    10    15    16    1
    11    16    17    1
    12    17    18    1
    13    17    19    1
    14     2     3   ar
    15     3    22    1
    16    22    23    3
    17     3     4   ar
    18     4     5   ar
    19     5     6   ar
    20     6     7    2
    21     6     8   ar
    22     8    29    1
    23    29    30    1
    24    30    31   ar
    25    31    32   ar
    26    32    33   ar
    27    33    34   ar
    28    34    35   ar
    29    35    36   ar
    30    36    37   ar
    31    37    38   ar
    32    38    39   ar
    33     8     9   ar
    34     9    10    2
    35     9    11   ar
    36    11    12    1
    37     5     1   ar
    38    39    30   ar
    39    19    13    1
    40    11     4   ar
    41    39    34   ar
    42    18    20    1
    43    18    21    1
@<TRIPOS>MOLECULE
*****
 39 43 0 0 0
SMALL
GASTEIGER

@<TRIPOS>ATOM
      1 N         142.1255  140.2398  164.7304 N.ar    1  UNL1       -0.3063
      2 C         142.4113  141.6052  165.2818 C.ar    1  UNL1        0.1240
      3 C         142.9912  142.4388  164.1779 C.ar    1  UNL1        0.1156
      4 C         143.0637  141.5887  162.9442 C.ar    1  UNL1        0.0966
      5 C         142.5287  140.2297  163.2857 C.ar    1  UNL1        0.1349
      6 C         142.4777  139.1584  162.2369 C.ar    1  UNL1        0.2819
      7 O         141.9427  137.7993  162.5784 O.2     1  UNL1       -0.2652
      8 N         142.9618  139.4462  160.8467 N.ar    1  UNL1       -0.2417
      9 C         143.4969  140.8054  160.5052 C.ar    1  UNL1        0.3342
     10 O         143.9810  141.0932  159.1150 O.2     1  UNL1       -0.2462
     11 N         143.5478  141.8766  161.5539 N.ar    1  UNL1       -0.2770
     12 C         144.0828  143.2356  161.2124 C.3     1  UNL1        0.1351
     13 N         142.1612  142.0574  166.6901 N.pl3   1  UNL1       -0.2926
     14 C         140.7849  142.4828  167.1079 C.3     1  UNL1        0.0922
     15 C         140.5348  142.9351  168.5160 C.3     1  UNL1        0.0229
     16 C         141.6611  142.9619  169.5063 C.3     1  UNL1        0.0190
     17 C         143.0375  142.5365  169.0885 C.3     1  UNL1        0.0709
     18 N         144.1638  142.5634  170.0788 N.3     1  UNL1       -0.3208
     19 C         143.2875  142.0843  167.6804 C.3     1  UNL1        0.1075
     20 H         143.8171  142.8943  170.9792 H       1  UNL1        0.1189
     21 H         144.8954  143.1907  169.7448 H       1  UNL1        0.1189
     22 C         143.4228  143.8711  164.2882 C.1     1  UNL1        0.1047
     23 N         143.8544  145.3035  164.3984 N.1     1  UNL1       -0.1907
     24 C         141.5393  139.0870  165.4903 C.3     1  UNL1        0.1332
     25 C         137.7764  138.7023  166.6914 C.3     1  UNL1        0.0261
     26 C         139.0384  138.5163  165.9022 C.2     1  UNL1       -0.0460
     27 C         139.0614  137.5735  164.7357 C.3     1  UNL1        0.0261
     28 C         140.2773  139.2730  166.2795 C.2     1  UNL1       -0.0102
     29 C         142.9109  138.3750  159.7980 C.3     1  UNL1        0.1593
     30 C         141.7891  138.3528  158.8024 C.ar    1  UNL1        0.0821
     31 N         140.6419  139.3088  158.9437 N.ar    1  UNL1       -0.2462
     32 C         139.5201  139.2866  157.9482 C.ar    1  UNL1        0.0985
     33 C         139.5455  138.3083  156.8114 C.ar    1  UNL1        0.0207
     34 C         140.6927  137.3523  156.6701 C.ar    1  UNL1        0.0027
     35 C         140.7181  136.3740  155.5333 C.ar    1  UNL1        0.0001
     36 C         141.8653  135.4180  155.3920 C.ar    1  UNL1        0.0000
     37 C         142.9871  135.4403  156.3875 C.ar    1  UNL1        0.0000
     38 C         142.9617  136.4185  157.5243 C.ar    1  UNL1        0.0012
     39 C         141.8145  137.3745  157.6656 C.ar    1  UNL1        0.0155
@<TRIPOS>BOND
     1    25    26    1
     2    26    27    1
     3    26    28    2
     4    28    24    1
     5    24     1    1
     6     1     2   ar
     7     2    13    1
     8    13    14    1
     9    14    15    1
    10    15    16    1
    11    16    17    1
    12    17    18    1
    13    17    19    1
    14     2     3   ar
    15     3    22    1
    16    22    23    3
    17     3     4   ar
    18     4     5   ar
    19     5     6   ar
    20     6     7    2
    21     6     8   ar
    22     8    29    1
    23    29    30    1
    24    30    31   ar
    25    31    32   ar
    26    32    33   ar
    27    33    34   ar
    28    34    35   ar
    29    35    36   ar
    30    36    37   ar
    31    37    38   ar
    32    38    39   ar
    33     8     9   ar
    34     9    10    2
    35     9    11   ar
    36    11    12    1
    37     5     1   ar
    38    39    30   ar
    39    19    13    1
    40    11     4   ar
    41    39    34   ar
    42    18    20    1
    43    18    21    1
@<TRIPOS>MOLECULE
*****
 39 43 0 0 0
SMALL
GASTEIGER

@<TRIPOS>ATOM
      1 N         142.4922  141.0504  165.8630 N.ar    1  UNL1       -0.3063
      2 C         141.2641  140.7946  166.6854 C.ar    1  UNL1        0.1240
      3 C         140.4282  139.7776  165.9664 C.ar    1  UNL1        0.1156
      4 C         141.1397  139.4049  164.6995 C.ar    1  UNL1        0.0966
      5 C         142.4153  140.1915  164.6357 C.ar    1  UNL1        0.1349
      6 C         143.3421  140.0241  163.4682 C.ar    1  UNL1        0.2819
      7 O         144.6176  140.8107  163.4043 O.2     1  UNL1       -0.2652
      8 N         142.9932  139.0700  162.3645 N.ar    1  UNL1       -0.2417
      9 C         141.7176  138.2834  162.4284 C.ar    1  UNL1        0.3342
     10 O         141.3688  137.3293  161.3247 O.2     1  UNL1       -0.2462
     11 N         140.7909  138.4508  163.5959 N.ar    1  UNL1       -0.2770
     12 C         139.5153  137.6642  163.6597 C.3     1  UNL1        0.1351
     13 N         140.9304  141.4421  167.9967 N.pl3   1  UNL1       -0.2926
     14 C         140.5773  142.8991  168.0454 C.3     1  UNL1        0.0922
     15 C         140.2437  143.5465  169.3566 C.3     1  UNL1        0.0229
     16 C         140.2632  142.7370  170.6193 C.3     1  UNL1        0.0190
     17 C         140.6164  141.2800  170.5706 C.3     1  UNL1        0.0709
     18 N         140.6359  140.4705  171.8333 N.3     1  UNL1       -0.3208
     19 C         140.9500  140.6326  169.2594 C.3     1  UNL1        0.1075
     20 H         140.3861  141.0659  172.6229 H       1  UNL1        0.1189
     21 H         141.5705  140.0885  171.9778 H       1  UNL1        0.1189
     22 C         139.1120  139.2295  166.4323 C.1     1  UNL1        0.1047
     23 N         137.7956  138.6816  166.8982 N.1     1  UNL1       -0.1907
     24 C         143.6022  141.9986  166.2075 C.3     1  UNL1        0.1332
     25 C         143.6556  144.8116  163.4086 C.3     1  UNL1        0.0261
     26 C         143.1480  143.8456  164.4377 C.2     1  UNL1       -0.0460
     27 C         141.6784  143.7605  164.7260 C.3     1  UNL1        0.0261
     28 C         144.1099  142.9646  165.1784 C.2     1  UNL1       -0.0102
     29 C         143.9200  138.9026  161.1970 C.3     1  UNL1        0.1593
     30 C         143.4494  139.2355  159.8122 C.ar    1  UNL1        0.0821
     31 N         143.1784  138.1367  158.8277 N.ar    1  UNL1       -0.2462
     32 C         142.7079  138.4696  157.4429 C.ar    1  UNL1        0.0985
     33 C         142.5084  139.9013  157.0425 C.ar    1  UNL1        0.0207
     34 C         142.7794  141.0002  158.0269 C.ar    1  UNL1        0.0027
     35 C         142.5798  142.4319  157.6266 C.ar    1  UNL1        0.0001
     36 C         142.8508  143.5307  158.6110 C.ar    1  UNL1        0.0000
     37 C         143.3214  143.1978  159.9958 C.ar    1  UNL1        0.0000
     38 C         143.5209  141.7661  160.3962 C.ar    1  UNL1        0.0012
     39 C         143.2499  140.6673  159.4118 C.ar    1  UNL1        0.0155
@<TRIPOS>BOND
     1    25    26    1
     2    26    27    1
     3    26    28    2
     4    28    24    1
     5    24     1    1
     6     1     2   ar
     7     2    13    1
     8    13    14    1
     9    14    15    1
    10    15    16    1
    11    16    17    1
    12    17    18    1
    13    17    19    1
    14     2     3   ar
    15     3    22    1
    16    22    23    3
    17     3     4   ar
    18     4     5   ar
    19     5     6   ar
    20     6     7    2
    21     6     8   ar
    22     8    29    1
    23    29    30    1
    24    30    31   ar
    25    31    32   ar
    26    32    33   ar
    27    33    34   ar
    28    34    35   ar
    29    35    36   ar
    30    36    37   ar
    31    37    38   ar
    32    38    39   ar
    33     8     9   ar
    34     9    10    2
    35     9    11   ar
    36    11    12    1
    37     5     1   ar
    38    39    30   ar
    39    19    13    1
    40    11     4   ar
    41    39    34   ar
    42    18    20    1
    43    18    21    1
@<TRIPOS>MOLECULE
*****
 39 43 0 0 0
SMALL
GASTEIGER

@<TRIPOS>ATOM
      1 N         141.8084  140.7743  162.6682 N.ar    1  UNL1       -0.3063
      2 C         140.6184  141.3024  163.4132 C.ar    1  UNL1        0.1240
      3 C         140.2061  142.5943  162.7722 C.ar    1  UNL1        0.1156
      4 C         141.1412  142.8646  161.6309 C.ar    1  UNL1        0.0966
      5 C         142.1315  141.7399  161.5667 C.ar    1  UNL1        0.1349
      6 C         143.1995  141.7401  160.5134 C.ar    1  UNL1        0.2819
      7 O         144.1898  140.6153  160.4492 O.2     1  UNL1       -0.2652
      8 N         143.2772  142.8652  159.5244 N.ar    1  UNL1       -0.2417
      9 C         142.2869  143.9900  159.5887 C.ar    1  UNL1        0.3342
     10 O         142.3646  145.1151  158.5997 O.2     1  UNL1       -0.2462
     11 N         141.2189  143.9897  160.6419 N.ar    1  UNL1       -0.2770
     12 C         140.2286  145.1145  160.7062 C.3     1  UNL1        0.1351
     13 N         139.9570  140.6526  164.5924 N.pl3   1  UNL1       -0.2926
     14 C         138.8459  139.6676  164.3804 C.3     1  UNL1        0.0922
     15 C         138.1844  139.0178  165.5595 C.3     1  UNL1        0.0229
     16 C         138.6341  139.3532  166.9506 C.3     1  UNL1        0.0190
     17 C         139.7452  140.3383  167.1627 C.3     1  UNL1        0.0709
     18 N         140.1949  140.6737  168.5538 N.3     1  UNL1       -0.3208
     19 C         140.4066  140.9880  165.9835 C.3     1  UNL1        0.1075
     20 H         139.6407  140.1446  169.2271 H       1  UNL1        0.1189
     21 H         140.0696  141.6722  168.7202 H       1  UNL1        0.1189
     22 C         139.0599  143.4633  163.1976 C.1     1  UNL1        0.1047
     23 N         137.9137  144.3324  163.6232 N.1     1  UNL1       -0.1907
     24 C         142.5458  139.5038  162.9714 C.3     1  UNL1        0.1332
     25 C         143.6105  138.1974  166.5645 C.3     1  UNL1        0.0261
     26 C         142.8616  138.3399  165.2726 C.2     1  UNL1       -0.0460
     27 C         141.6794  137.4607  164.9902 C.3     1  UNL1        0.0261
     28 C         143.2947  139.3613  164.2633 C.2     1  UNL1       -0.0102
     29 C         144.3452  142.8655  158.4711 C.3     1  UNL1        0.1593
     30 C         144.1115  142.1643  157.1659 C.ar    1  UNL1        0.0821
     31 N         142.7431  141.6548  156.8227 N.ar    1  UNL1       -0.2462
     32 C         142.5095  140.9535  155.5174 C.ar    1  UNL1        0.0985
     33 C         143.6442  140.7618  154.5554 C.ar    1  UNL1        0.0207
     34 C         145.0127  141.2713  154.8986 C.ar    1  UNL1        0.0027
     35 C         146.1474  141.0795  153.9366 C.ar    1  UNL1        0.0001
     36 C         147.5158  141.5890  154.2798 C.ar    1  UNL1        0.0000
     37 C         147.7495  142.2903  155.5850 C.ar    1  UNL1        0.0000
     38 C         146.6148  142.4820  156.5470 C.ar    1  UNL1        0.0012
     39 C         145.2464  141.9725  156.2038 C.ar    1  UNL1        0.0155
@<TRIPOS>BOND
     1    25    26    1
     2    26    27    1
     3    26    28    2
     4    28    24    1
     5    24     1    1
     6     1     2   ar
     7     2    13    1
     8    13    14    1
     9    14    15    1
    10    15    16    1
    11    16    17    1
    12    17    18    1
    13    17    19    1
    14     2     3   ar
    15     3    22    1
    16    22    23    3
    17     3     4   ar
    18     4     5   ar
    19     5     6   ar
    20     6     7    2
    21     6     8   ar
    22     8    29    1
    23    29    30    1
    24    30    31   ar
    25    31    32   ar
    26    32    33   ar
    27    33    34   ar
    28    34    35   ar
    29    35    36   ar
    30    36    37   ar
    31    37    38   ar
    32    38    39   ar
    33     8     9   ar
    34     9    10    2
    35     9    11   ar
    36    11    12    1
    37     5     1   ar
    38    39    30   ar
    39    19    13    1
    40    11     4   ar
    41    39    34   ar
    42    18    20    1
    43    18    21    1
@<TRIPOS>MOLECULE
*****
 39 43 0 0 0
SMALL
GASTEIGER

@<TRIPOS>ATOM
      1 N         139.3559  139.8865  162.5339 N.ar    1  UNL1       -0.3063
      2 C         140.1391  139.5570  163.7701 C.ar    1  UNL1        0.1240
      3 C         141.5384  139.2122  163.3542 C.ar    1  UNL1        0.1156
      4 C         141.6201  139.3286  161.8609 C.ar    1  UNL1        0.0966
      5 C         140.2713  139.7453  161.3540 C.ar    1  UNL1        0.1349
      6 C         140.0508  139.9424  159.8834 C.ar    1  UNL1        0.2819
      7 O         138.7020  140.3591  159.3765 O.2     1  UNL1       -0.2652
      8 N         141.1792  139.7228  158.9198 N.ar    1  UNL1       -0.2417
      9 C         142.5280  139.3060  159.4268 C.ar    1  UNL1        0.3342
     10 O         143.6564  139.0864  158.4632 O.2     1  UNL1       -0.2462
     11 N         142.7485  139.1089  160.8973 N.ar    1  UNL1       -0.2770
     12 C         144.0973  138.6922  161.4043 C.3     1  UNL1        0.1351
     13 N         139.6148  139.5700  165.1755 N.pl3   1  UNL1       -0.2926
     14 C         140.1784  140.5337  166.1773 C.3     1  UNL1        0.0922
     15 C         139.6542  140.5467  167.5826 C.3     1  UNL1        0.0229
     16 C         138.5663  139.5959  167.9861 C.3     1  UNL1        0.0190
     17 C         138.0028  138.6323  166.9843 C.3     1  UNL1        0.0709
     18 N         136.9150  137.6816  167.3878 N.3     1  UNL1       -0.3208
     19 C         138.5270  138.6193  165.5790 C.3     1  UNL1        0.1075
     20 H         136.6830  137.8276  168.3703 H       1  UNL1        0.1189
     21 H         137.2344  136.7223  167.2529 H       1  UNL1        0.1189
     22 C         142.6592  138.8199  164.2706 C.1     1  UNL1        0.1047
     23 N         143.7802  138.4275  165.1869 N.1     1  UNL1       -0.1907
     24 C         137.9112  140.2868  162.4860 C.3     1  UNL1        0.1332
     25 C         137.3808  144.0703  163.5604 C.3     1  UNL1        0.0261
     26 C         137.8507  142.8650  162.8011 C.2     1  UNL1       -0.0460
     27 C         138.7300  143.0328  161.5974 C.3     1  UNL1        0.0261
     28 C         137.4413  141.4921  163.2453 C.2     1  UNL1       -0.0102
     29 C         140.9588  139.9199  157.4493 C.3     1  UNL1        0.1593
     30 C         140.5144  138.7686  156.5965 C.ar    1  UNL1        0.0821
     31 N         141.3690  137.5404  156.4901 N.ar    1  UNL1       -0.2462
     32 C         140.9246  136.3892  155.6374 C.ar    1  UNL1        0.0985
     33 C         139.6258  136.4660  154.8911 C.ar    1  UNL1        0.0207
     34 C         138.7712  137.6942  154.9975 C.ar    1  UNL1        0.0027
     35 C         137.4723  137.7711  154.2512 C.ar    1  UNL1        0.0001
     36 C         136.6178  138.9993  154.3576 C.ar    1  UNL1        0.0000
     37 C         137.0621  140.1506  155.2103 C.ar    1  UNL1        0.0000
     38 C         138.3610  140.0737  155.9566 C.ar    1  UNL1        0.0012
     39 C         139.2155  138.8455  155.8502 C.ar    1  UNL1        0.0155
@<TRIPOS>BOND
     1    25    26    1
     2    26    27    1
     3    26    28    2
     4    28    24    1
     5    24     1    1
     6     1     2   ar
     7     2    13    1
     8    13    14    1
     9    14    15    1
    10    15    16    1
    11    16    17    1
    12    17    18    1
    13    17    19    1
    14     2     3   ar
    15     3    22    1
    16    22    23    3
    17     3     4   ar
    18     4     5   ar
    19     5     6   ar
    20     6     7    2
    21     6     8   ar
    22     8    29    1
    23    29    30    1
    24    30    31   ar
    25    31    32   ar
    26    32    33   ar
    27    33    34   ar
    28    34    35   ar
    29    35    36   ar
    30    36    37   ar
    31    37    38   ar
    32    38    39   ar
    33     8     9   ar
    34     9    10    2
    35     9    11   ar
    36    11    12    1
    37     5     1   ar
    38    39    30   ar
    39    19    13    1
    40    11     4   ar
    41    39    34   ar
    42    18    20    1
    43    18    21    1
@<TRIPOS>MOLECULE
*****
 39 43 0 0 0
SMALL
GASTEIGER

@<TRIPOS>ATOM
      1 N         141.5157  139.4740  160.1323 N.ar    1  UNL1       -0.3063
      2 C         141.2204  140.8328  160.6949 C.ar    1  UNL1        0.1240
      3 C         141.8028  141.8559  159.7654 C.ar    1  UNL1        0.1156
      4 C         142.4580  141.1295  158.6283 C.ar    1  UNL1        0.0966
      5 C         142.2805  139.6574  158.8551 C.ar    1  UNL1        0.1349
      6 C         142.8383  138.6741  157.8692 C.ar    1  UNL1        0.2819
      7 O         142.6608  137.2020  158.0959 O.2     1  UNL1       -0.2652
      8 N         143.5736  139.1629  156.6565 N.ar    1  UNL1       -0.2417
      9 C         143.7511  140.6350  156.4298 C.ar    1  UNL1        0.3342
     10 O         144.4864  141.1238  155.2172 O.2     1  UNL1       -0.2462
     11 N         143.1933  141.6183  157.4157 N.ar    1  UNL1       -0.2770
     12 C         143.3708  143.0904  157.1890 C.3     1  UNL1        0.1351
     13 N         140.4738  141.1183  161.9643 N.pl3   1  UNL1       -0.2926
     14 C         141.2271  141.3833  163.2340 C.3     1  UNL1        0.0922
     15 C         140.4805  141.6688  164.5033 C.3     1  UNL1        0.0229
     16 C         138.9806  141.6892  164.5028 C.3     1  UNL1        0.0190
     17 C         138.2274  141.4242  163.2330 C.3     1  UNL1        0.0709
     18 N         136.7275  141.4446  163.2325 N.3     1  UNL1       -0.3208
     19 C         138.9740  141.1387  161.9638 C.3     1  UNL1        0.1075
     20 H         136.3900  141.6530  164.1723 H       1  UNL1        0.1189
     21 H         136.3752  140.5335  162.9390 H       1  UNL1        0.1189
     22 C         141.7410  143.3442  159.9420 C.1     1  UNL1        0.1047
     23 N         141.6790  144.8326  160.1186 N.1     1  UNL1       -0.1907
     24 C         141.1162  138.1622  160.7401 C.3     1  UNL1        0.1332
     25 C         141.1848  137.1470  164.5761 C.3     1  UNL1        0.0261
     26 C         140.6702  137.5335  163.2212 C.2     1  UNL1       -0.0460
     27 C         139.1947  137.6778  162.9926 C.3     1  UNL1        0.0261
     28 C         141.6308  137.7757  162.0950 C.2     1  UNL1       -0.0102
     29 C         144.1314  138.1796  155.6707 C.3     1  UNL1        0.1593
     30 C         143.2262  137.5267  154.6685 C.ar    1  UNL1        0.0821
     31 N         142.4869  138.3646  153.6679 N.ar    1  UNL1       -0.2462
     32 C         141.5817  137.7118  152.6657 C.ar    1  UNL1        0.0985
     33 C         141.4157  136.2210  152.6642 C.ar    1  UNL1        0.0207
     34 C         142.1550  135.3830  153.6649 C.ar    1  UNL1        0.0027
     35 C         141.9890  133.8923  153.6634 C.ar    1  UNL1        0.0001
     36 C         142.7282  133.0544  154.6641 C.ar    1  UNL1        0.0000
     37 C         143.6335  133.7072  155.6662 C.ar    1  UNL1        0.0000
     38 C         143.7995  135.1980  155.6677 C.ar    1  UNL1        0.0012
     39 C         143.0602  136.0359  154.6671 C.ar    1  UNL1        0.0155
@<TRIPOS>BOND
     1    25    26    1
     2    26    27    1
     3    26    28    2
     4    28    24    1
     5    24     1    1
     6     1     2   ar
     7     2    13    1
     8    13    14    1
     9    14    15    1
    10    15    16    1
    11    16    17    1
    12    17    18    1
    13    17    19    1
    14     2     3   ar
    15     3    22    1
    16    22    23    3
    17     3     4   ar
    18     4     5   ar
    19     5     6   ar
    20     6     7    2
    21     6     8   ar
    22     8    29    1
    23    29    30    1
    24    30    31   ar
    25    31    32   ar
    26    32    33   ar
    27    33    34   ar
    28    34    35   ar
    29    35    36   ar
    30    36    37   ar
    31    37    38   ar
    32    38    39   ar
    33     8     9   ar
    34     9    10    2
    35     9    11   ar
    36    11    12    1
    37     5     1   ar
    38    39    30   ar
    39    19    13    1
    40    11     4   ar
    41    39    34   ar
    42    18    20    1
    43    18    21    1
@<TRIPOS>MOLECULE
*****
 39 43 0 0 0
SMALL
GASTEIGER

@<TRIPOS>ATOM
      1 N         140.2267  142.0901  164.8731 N.ar    1  UNL1       -0.3063
      2 C         141.3649  142.3746  165.8078 C.ar    1  UNL1        0.1240
      3 C         142.4814  142.9782  165.0083 C.ar    1  UNL1        0.1156
      4 C         142.0332  143.0668  163.5796 C.ar    1  UNL1        0.0966
      5 C         140.6397  142.5180  163.4961 C.ar    1  UNL1        0.1349
      6 C         139.9269  142.4787  162.1768 C.ar    1  UNL1        0.2819
      7 O         138.5334  141.9298  162.0933 O.2     1  UNL1       -0.2652
      8 N         140.6076  142.9882  160.9411 N.ar    1  UNL1       -0.2417
      9 C         142.0011  143.5371  161.0246 C.ar    1  UNL1        0.3342
     10 O         142.6818  144.0466  159.7889 O.2     1  UNL1       -0.2462
     11 N         142.7139  143.5764  162.3439 N.ar    1  UNL1       -0.2770
     12 C         144.1073  144.1252  162.4274 C.3     1  UNL1        0.1351
     13 N         141.3834  142.1031  167.2829 N.pl3   1  UNL1       -0.2926
     14 C         140.5860  142.9668  168.2145 C.3     1  UNL1        0.0922
     15 C         140.6045  142.6953  169.6896 C.3     1  UNL1        0.0229
     16 C         141.4204  141.5600  170.2331 C.3     1  UNL1        0.0190
     17 C         142.2179  140.6962  169.3014 C.3     1  UNL1        0.0709
     18 N         143.0339  139.5609  169.8449 N.3     1  UNL1       -0.3208
     19 C         142.1994  140.9678  167.8264 C.3     1  UNL1        0.1075
     20 H         142.9305  139.5228  170.8589 H       1  UNL1        0.1189
     21 H         144.0157  139.7042  169.6083 H       1  UNL1        0.1189
     22 C         143.8124  143.4163  165.5435 C.1     1  UNL1        0.1047
     23 N         145.1435  143.8544  166.0787 N.1     1  UNL1       -0.1907
     24 C         138.9071  141.4843  165.2495 C.3     1  UNL1        0.1332
     25 C         138.3292  137.6091  165.8814 C.3     1  UNL1        0.0261
     26 C         138.5871  139.0642  166.1388 C.2     1  UNL1       -0.0460
     27 C         138.7828  139.5543  167.5430 C.3     1  UNL1        0.0261
     28 C         138.6493  140.0292  164.9922 C.2     1  UNL1       -0.0102
     29 C         139.8948  142.9489  159.6219 C.3     1  UNL1        0.1593
     30 C         139.8343  141.6703  158.8399 C.ar    1  UNL1        0.0821
     31 N         140.7321  140.5252  159.2040 N.ar    1  UNL1       -0.2462
     32 C         140.6715  139.2466  158.4221 C.ar    1  UNL1        0.0985
     33 C         139.7131  139.1131  157.2760 C.ar    1  UNL1        0.0207
     34 C         138.8152  140.2582  156.9118 C.ar    1  UNL1        0.0027
     35 C         137.8568  140.1247  155.7657 C.ar    1  UNL1        0.0001
     36 C         136.9590  141.2698  155.4015 C.ar    1  UNL1        0.0000
     37 C         137.0196  142.5484  156.1835 C.ar    1  UNL1        0.0000
     38 C         137.9780  142.6819  157.3296 C.ar    1  UNL1        0.0012
     39 C         138.8758  141.5368  157.6937 C.ar    1  UNL1        0.0155
@<TRIPOS>BOND
     1    25    26    1
     2    26    27    1
     3    26    28    2
     4    28    24    1
     5    24     1    1
     6     1     2   ar
     7     2    13    1
     8    13    14    1
     9    14    15    1
    10    15    16    1
    11    16    17    1
    12    17    18    1
    13    17    19    1
    14     2     3   ar
    15     3    22    1
    16    22    23    3
    17     3     4   ar
    18     4     5   ar
    19     5     6   ar
    20     6     7    2
    21     6     8   ar
    22     8    29    1
    23    29    30    1
    24    30    31   ar
    25    31    32   ar
    26    32    33   ar
    27    33    34   ar
    28    34    35   ar
    29    35    36   ar
    30    36    37   ar
    31    37    38   ar
    32    38    39   ar
    33     8     9   ar
    34     9    10    2
    35     9    11   ar
    36    11    12    1
    37     5     1   ar
    38    39    30   ar
    39    19    13    1
    40    11     4   ar
    41    39    34   ar
    42    18    20    1
    43    18    21    1
