@<TRIPOS>MOLECULE
*****
 39 42 0 0 0
SMALL
GASTEIGER

@<TRIPOS>ATOM
      1 C         140.3915  141.2924  164.9458 C.2     1  UNL1        0.2894
      2 O         141.3872  140.6782  164.0070 O.2     1  UNL1       -0.2688
      3 N         139.9844  142.7259  164.7745 N.am    1  UNL1       -0.1703
      4 N         139.0052  143.4727  165.6309 N.2     1  UNL1       -0.1783
      5 C         138.9006  144.8727  165.1025 C.2     1  UNL1        0.0938
      6 C         139.8152  144.9911  163.9195 C.3     1  UNL1        0.0799
      7 C         140.4851  143.6643  163.7168 C.3     1  UNL1        0.1809
      8 C         141.4807  143.3339  162.6447 C.2     1  UNL1        0.2432
      9 O         142.7960  144.0533  162.5952 O.2     1  UNL1       -0.2732
     10 N         141.1610  142.2841  161.6220 N.am    1  UNL1       -0.2990
     11 H         140.2978  141.8120  161.6545 H       1  UNL1        0.1498
     12 C         142.1567  141.9538  160.5499 C.3     1  UNL1        0.1179
     13 C         142.3672  140.5275  160.1355 C.ar    1  UNL1        0.0161
     14 C         141.5094  139.9235  159.0635 C.ar    1  UNL1        0.0103
     15 C         141.7199  138.4974  158.6492 C.ar    1  UNL1        0.0575
     16 CL        140.8620  137.8933  157.5772 Cl      1  UNL1       -0.0823
     17 C         142.7883  137.6752  159.3070 C.ar    1  UNL1        0.0129
     18 C         143.6462  138.2792  160.3789 C.ar    1  UNL1        0.0199
     19 C         143.4356  139.7054  160.7932 C.ar    1  UNL1        0.0839
     20 N         144.2935  140.3095  161.8653 N.ar    1  UNL1       -0.1889
     21 C         144.4694  139.7788  163.2572 C.ar    1  UNL1        0.2258
     22 N         145.4106  140.6917  163.9858 N.ar    1  UNL1       -0.1045
     23 N         145.8165  141.7865  163.0441 N.ar    1  UNL1       -0.0222
     24 N         145.1260  141.5503  161.7336 N.ar    1  UNL1       -0.0385
     25 C         139.8030  140.4731  166.0560 C.3     1  UNL1        0.2681
     26 C         140.6354  140.1263  167.2547 C.ar    1  UNL1        0.0265
     27 C         140.0946  140.3555  168.6349 C.ar    1  UNL1        0.0020
     28 C         140.9268  140.0088  169.8337 C.ar    1  UNL1        0.0294
     29 C         142.2999  139.4329  169.6522 C.ar    1  UNL1        0.1401
     30 F         143.1323  139.0862  170.8509 F       1  UNL1       -0.2042
     31 C         142.8408  139.2038  168.2720 C.ar    1  UNL1        0.0294
     32 C         142.0085  139.5505  167.0732 C.ar    1  UNL1        0.0020
     33 O         138.3822  140.0005  165.9673 O.3     1  UNL1       -0.4381
     34 C         138.0676  138.5403  166.1040 C.2     1  UNL1        0.3176
     35 O         137.0527  138.0827  167.1093 O.2     1  UNL1       -0.2501
     36 C         138.7677  137.5377  165.2353 C.3     1  UNL1        0.1096
     37 C         138.8307  137.7454  163.7511 C.3     1  UNL1        0.0116
     38 C         141.3737  137.2140  163.7844 C.3     1  UNL1        0.0000
     39 C         140.1311  137.5716  163.0240 C.3     1  UNL1        0.0006
@<TRIPOS>BOND
     1    38    39    1
     2    39    37    1
     3    37    36    1
     4    36    34    1
     5    34    35    2
     6    34    33    1
     7    25    33    1
     8    25     1    1
     9     1     2    2
    10     1     3   am
    11     3     4    1
    12     4     5    2
    13     5     6    1
    14     6     7    1
    15     7     8    1
    16     8     9    2
    17     8    10   am
    18    10    12    1
    19    12    13    1
    20    13    14   ar
    21    14    15   ar
    22    15    16    1
    23    15    17   ar
    24    17    18   ar
    25    18    19   ar
    26    19    20    1
    27    20    21   ar
    28    21    22   ar
    29    22    23   ar
    30    23    24   ar
    31    25    26    1
    32    26    27   ar
    33    27    28   ar
    34    28    29   ar
    35    29    30    1
    36    29    31   ar
    37    31    32   ar
    38     7     3    1
    39    19    13   ar
    40    24    20   ar
    41    32    26   ar
    42    10    11    1
@<TRIPOS>MOLECULE
*****
 39 42 0 0 0
SMALL
GASTEIGER

@<TRIPOS>ATOM
      1 C         140.9440  140.7401  164.7375 C.2     1  UNL1        0.2894
      2 O         140.9157  141.6029  163.5109 O.2     1  UNL1       -0.2688
      3 N         142.1687  139.9367  165.0612 N.am    1  UNL1       -0.1703
      4 N         142.3430  139.0337  166.2461 N.2     1  UNL1       -0.1783
      5 C         143.7161  138.4341  166.1741 C.2     1  UNL1        0.0938
      6 C         144.3904  138.9666  164.9445 C.3     1  UNL1        0.0799
      7 C         143.4340  139.8953  164.2567 C.3     1  UNL1        0.1809
      8 C         143.6969  140.6499  162.9874 C.2     1  UNL1        0.2432
      9 O         144.0184  139.9058  161.7253 O.2     1  UNL1       -0.2732
     10 N         143.6382  142.1488  162.9801 N.am    1  UNL1       -0.2990
     11 H         143.4271  142.6372  163.8084 H       1  UNL1        0.1498
     12 C         143.9010  142.9035  161.7107 C.3     1  UNL1        0.1179
     13 C         142.7714  143.5819  160.9939 C.ar    1  UNL1        0.0161
     14 C         141.8813  144.5376  161.7316 C.ar    1  UNL1        0.0103
     15 C         140.7518  145.2160  161.0147 C.ar    1  UNL1        0.0575
     16 CL        139.8616  146.1718  161.7525 Cl      1  UNL1       -0.0823
     17 C         140.5123  144.9387  159.5602 C.ar    1  UNL1        0.0129
     18 C         141.4024  143.9830  158.8224 C.ar    1  UNL1        0.0199
     19 C         142.5320  143.3046  159.5393 C.ar    1  UNL1        0.0839
     20 N         143.4222  142.3489  158.8016 N.ar    1  UNL1       -0.1889
     21 C         143.1909  140.8759  158.6381 C.ar    1  UNL1        0.2258
     22 N         144.3257  140.3150  157.8333 N.ar    1  UNL1       -0.1045
     23 N         145.2584  141.4414  157.4994 N.ar    1  UNL1       -0.0222
     24 N         144.6999  142.6984  158.0978 N.ar    1  UNL1       -0.0385
     25 C         139.7477  140.6806  165.6405 C.3     1  UNL1        0.2681
     26 C         139.8620  141.1286  167.0674 C.ar    1  UNL1        0.0265
     27 C         140.4244  142.4823  167.3857 C.ar    1  UNL1        0.0020
     28 C         140.5388  142.9304  168.8126 C.ar    1  UNL1        0.0294
     29 C         140.0909  142.0247  169.9212 C.ar    1  UNL1        0.1401
     30 F         140.2052  142.4727  171.3482 F       1  UNL1       -0.2042
     31 C         139.5285  140.6710  169.6030 C.ar    1  UNL1        0.0294
     32 C         139.4141  140.2230  168.1761 C.ar    1  UNL1        0.0020
     33 O         138.4370  140.1732  165.1164 O.3     1  UNL1       -0.4381
     34 C         138.0259  140.4750  163.7057 C.2     1  UNL1        0.3176
     35 O         138.4227  139.5489  162.5945 O.2     1  UNL1       -0.2501
     36 C         137.2180  141.7029  163.4063 C.3     1  UNL1        0.1096
     37 C         137.8779  143.0499  163.3920 C.3     1  UNL1        0.0116
     38 C         138.9975  144.7843  164.9695 C.3     1  UNL1        0.0000
     39 C         137.8218  143.9255  164.6086 C.3     1  UNL1        0.0006
@<TRIPOS>BOND
     1    38    39    1
     2    39    37    1
     3    37    36    1
     4    36    34    1
     5    34    35    2
     6    34    33    1
     7    25    33    1
     8    25     1    1
     9     1     2    2
    10     1     3   am
    11     3     4    1
    12     4     5    2
    13     5     6    1
    14     6     7    1
    15     7     8    1
    16     8     9    2
    17     8    10   am
    18    10    12    1
    19    12    13    1
    20    13    14   ar
    21    14    15   ar
    22    15    16    1
    23    15    17   ar
    24    17    18   ar
    25    18    19   ar
    26    19    20    1
    27    20    21   ar
    28    21    22   ar
    29    22    23   ar
    30    23    24   ar
    31    25    26    1
    32    26    27   ar
    33    27    28   ar
    34    28    29   ar
    35    29    30    1
    36    29    31   ar
    37    31    32   ar
    38     7     3    1
    39    19    13   ar
    40    24    20   ar
    41    32    26   ar
    42    10    11    1
@<TRIPOS>MOLECULE
*****
 39 42 0 0 0
SMALL
GASTEIGER

@<TRIPOS>ATOM
      1 C         141.0688  142.4502  163.8998 C.2     1  UNL1        0.2894
      2 O         141.1030  141.5715  162.6846 O.2     1  UNL1       -0.2688
      3 N         139.8389  143.2499  164.2126 N.am    1  UNL1       -0.1703
      4 N         139.6585  144.1672  165.3856 N.2     1  UNL1       -0.1783
      5 C         138.2816  144.7570  165.3054 C.2     1  UNL1        0.0938
      6 C         137.6111  144.2041  164.0828 C.3     1  UNL1        0.0799
      7 C         138.5736  143.2727  163.4074 C.3     1  UNL1        0.1809
      8 C         138.3159  142.4998  162.1480 C.2     1  UNL1        0.2432
      9 O         138.2817  143.2088  160.8266 O.2     1  UNL1       -0.2732
     10 N         138.0925  141.0177  162.2100 N.am    1  UNL1       -0.2990
     11 H         138.1149  140.5524  163.0773 H       1  UNL1        0.1498
     12 C         137.8348  140.2448  160.9506 C.3     1  UNL1        0.1179
     13 C         138.9834  139.8093  160.0896 C.ar    1  UNL1        0.0161
     14 C         139.1347  140.3641  158.7042 C.ar    1  UNL1        0.0103
     15 C         140.2832  139.9286  157.8433 C.ar    1  UNL1        0.0575
     16 CL        140.4346  140.4833  156.4578 Cl      1  UNL1       -0.0823
     17 C         141.2804  138.9384  158.3677 C.ar    1  UNL1        0.0129
     18 C         141.1291  138.3836  159.7531 C.ar    1  UNL1        0.0199
     19 C         139.9806  138.8191  160.6140 C.ar    1  UNL1        0.0839
     20 N         139.8292  138.2644  161.9995 N.ar    1  UNL1       -0.1889
     21 C         140.9474  137.9125  162.9354 C.ar    1  UNL1        0.2258
     22 N         140.3423  137.3948  164.2065 N.ar    1  UNL1       -0.1045
     23 N         138.8502  137.4267  164.0563 N.ar    1  UNL1       -0.0222
     24 N         138.5331  137.9642  162.6923 N.ar    1  UNL1       -0.0385
     25 C         142.2644  142.5291  164.8021 C.3     1  UNL1        0.2681
     26 C         142.3764  141.6085  165.9811 C.ar    1  UNL1        0.0265
     27 C         142.8627  142.1338  167.2992 C.ar    1  UNL1        0.0020
     28 C         142.9747  141.2133  168.4782 C.ar    1  UNL1        0.0294
     29 C         142.6003  139.7674  168.3391 C.ar    1  UNL1        0.1401
     30 F         142.7122  138.8468  169.5180 F       1  UNL1       -0.2042
     31 C         142.1140  139.2421  167.0209 C.ar    1  UNL1        0.0294
     32 C         142.0020  140.1626  165.8419 C.ar    1  UNL1        0.0020
     33 O         143.3481  143.5286  164.5254 O.3     1  UNL1       -0.4381
     34 C         144.0336  143.5417  163.1913 C.2     1  UNL1        0.3176
     35 O         143.9483  144.7569  162.3162 O.2     1  UNL1       -0.2501
     36 C         144.8043  142.3395  162.7322 C.3     1  UNL1        0.1096
     37 C         145.6464  141.5712  163.7073 C.3     1  UNL1        0.0116
     38 C         144.4111  139.3369  163.2258 C.3     1  UNL1        0.0000
     39 C         145.2252  140.1995  164.1441 C.3     1  UNL1        0.0006
@<TRIPOS>BOND
     1    38    39    1
     2    39    37    1
     3    37    36    1
     4    36    34    1
     5    34    35    2
     6    34    33    1
     7    25    33    1
     8    25     1    1
     9     1     2    2
    10     1     3   am
    11     3     4    1
    12     4     5    2
    13     5     6    1
    14     6     7    1
    15     7     8    1
    16     8     9    2
    17     8    10   am
    18    10    12    1
    19    12    13    1
    20    13    14   ar
    21    14    15   ar
    22    15    16    1
    23    15    17   ar
    24    17    18   ar
    25    18    19   ar
    26    19    20    1
    27    20    21   ar
    28    21    22   ar
    29    22    23   ar
    30    23    24   ar
    31    25    26    1
    32    26    27   ar
    33    27    28   ar
    34    28    29   ar
    35    29    30    1
    36    29    31   ar
    37    31    32   ar
    38     7     3    1
    39    19    13   ar
    40    24    20   ar
    41    32    26   ar
    42    10    11    1
@<TRIPOS>MOLECULE
*****
 39 42 0 0 0
SMALL
GASTEIGER

@<TRIPOS>ATOM
      1 C         141.9018  142.3116  163.0387 C.2     1  UNL1        0.2894
      2 O         140.9799  141.6922  164.0469 O.2     1  UNL1       -0.2688
      3 N         143.3789  142.0643  163.1216 N.am    1  UNL1       -0.1703
      4 N         144.4184  142.6131  162.1898 N.2     1  UNL1       -0.1783
      5 C         145.7579  142.1126  162.6431 C.2     1  UNL1        0.0938
      6 C         145.5461  141.2546  163.8550 C.3     1  UNL1        0.0799
      7 C         144.0759  141.2247  164.1508 C.3     1  UNL1        0.1809
      8 C         143.4181  140.4850  165.2778 C.2     1  UNL1        0.2432
      9 O         143.5482  138.9937  165.3732 O.2     1  UNL1       -0.2732
     10 N         142.6302  141.2367  166.3094 N.am    1  UNL1       -0.2990
     11 H         142.5448  142.2155  166.2468 H       1  UNL1        0.1498
     12 C         141.9724  140.4971  167.4365 C.3     1  UNL1        0.1179
     13 C         140.6104  139.8977  167.2465 C.ar    1  UNL1        0.0161
     14 C         140.2708  139.1992  165.9633 C.ar    1  UNL1        0.0103
     15 C         138.9089  138.5999  165.7733 C.ar    1  UNL1        0.0575
     16 CL        138.5692  137.9014  164.4901 Cl      1  UNL1       -0.0823
     17 C         137.8867  138.6991  166.8666 C.ar    1  UNL1        0.0129
     18 C         138.2264  139.3976  168.1498 C.ar    1  UNL1        0.0199
     19 C         139.5883  139.9969  168.3398 C.ar    1  UNL1        0.0839
     20 N         139.9280  140.6955  169.6230 N.ar    1  UNL1       -0.1889
     21 C         139.7966  142.1660  169.8880 C.ar    1  UNL1        0.2258
     22 N         140.2461  142.4255  171.2953 N.ar    1  UNL1       -0.1045
     23 N         140.6554  141.1152  171.9002 N.ar    1  UNL1       -0.0222
     24 N         140.4588  140.0460  170.8666 N.ar    1  UNL1       -0.0385
     25 C         141.3464  143.1785  161.9477 C.3     1  UNL1        0.2681
     26 C         140.9487  142.5701  160.6356 C.ar    1  UNL1        0.0265
     27 C         139.5183  142.1931  160.3868 C.ar    1  UNL1        0.0020
     28 C         139.1204  141.5847  159.0747 C.ar    1  UNL1        0.0294
     29 C         140.1529  141.3532  158.0115 C.ar    1  UNL1        0.1401
     30 F         139.7551  140.7448  156.6995 F       1  UNL1       -0.2042
     31 C         141.5833  141.7302  158.2604 C.ar    1  UNL1        0.0294
     32 C         141.9811  142.3386  159.5724 C.ar    1  UNL1        0.0020
     33 O         141.1890  144.6537  162.1688 O.3     1  UNL1       -0.4381
     34 C         139.8761  145.2055  162.6401 C.2     1  UNL1        0.3176
     35 O         139.0377  146.0382  161.7162 O.2     1  UNL1       -0.2501
     36 C         139.4018  144.9246  164.0351 C.3     1  UNL1        0.1096
     37 C         138.1443  144.1372  164.2554 C.3     1  UNL1        0.0116
     38 C         137.5283  141.6888  163.6421 C.3     1  UNL1        0.0000
     39 C         137.7069  143.1230  163.2405 C.3     1  UNL1        0.0006
@<TRIPOS>BOND
     1    38    39    1
     2    39    37    1
     3    37    36    1
     4    36    34    1
     5    34    35    2
     6    34    33    1
     7    25    33    1
     8    25     1    1
     9     1     2    2
    10     1     3   am
    11     3     4    1
    12     4     5    2
    13     5     6    1
    14     6     7    1
    15     7     8    1
    16     8     9    2
    17     8    10   am
    18    10    12    1
    19    12    13    1
    20    13    14   ar
    21    14    15   ar
    22    15    16    1
    23    15    17   ar
    24    17    18   ar
    25    18    19   ar
    26    19    20    1
    27    20    21   ar
    28    21    22   ar
    29    22    23   ar
    30    23    24   ar
    31    25    26    1
    32    26    27   ar
    33    27    28   ar
    34    28    29   ar
    35    29    30    1
    36    29    31   ar
    37    31    32   ar
    38     7     3    1
    39    19    13   ar
    40    24    20   ar
    41    32    26   ar
    42    10    11    1
@<TRIPOS>MOLECULE
*****
 39 42 0 0 0
SMALL
GASTEIGER

@<TRIPOS>ATOM
      1 C         140.8020  141.1803  164.9848 C.2     1  UNL1        0.2894
      2 O         140.5990  142.3053  164.0136 O.2     1  UNL1       -0.2688
      3 N         142.0697  140.3792  164.9502 N.am    1  UNL1       -0.1703
      4 N         142.4123  139.2316  165.8533 N.2     1  UNL1       -0.1783
      5 C         143.7717  138.7282  165.4678 C.2     1  UNL1        0.0938
      6 C         144.2692  139.5647  164.3265 C.3     1  UNL1        0.0799
      7 C         143.2173  140.5851  164.0066 C.3     1  UNL1        0.1809
      8 C         143.2988  141.6282  162.9318 C.2     1  UNL1        0.2432
      9 O         144.3494  142.6966  163.0016 O.2     1  UNL1       -0.2732
     10 N         142.3296  141.6030  161.7872 N.am    1  UNL1       -0.2990
     11 H         141.6401  140.9018  161.7414 H       1  UNL1        0.1498
     12 C         142.4110  142.6462  160.7124 C.3     1  UNL1        0.1179
     13 C         141.6553  142.4621  159.4297 C.ar    1  UNL1        0.0161
     14 C         142.1758  141.5251  158.3804 C.ar    1  UNL1        0.0103
     15 C         141.4201  141.3411  157.0979 C.ar    1  UNL1        0.0575
     16 CL        141.9405  140.4040  156.0485 Cl      1  UNL1       -0.0823
     17 C         140.1439  142.0941  156.8646 C.ar    1  UNL1        0.0129
     18 C         139.6235  143.0311  157.9139 C.ar    1  UNL1        0.0199
     19 C         140.3792  143.2151  159.1965 C.ar    1  UNL1        0.0839
     20 N         139.8587  144.1522  160.2458 N.ar    1  UNL1       -0.1889
     21 C         140.2179  145.6013  160.3903 C.ar    1  UNL1        0.2258
     22 N         139.4689  146.1493  161.5687 N.ar    1  UNL1       -0.1045
     23 N         138.6467  145.0388  162.1526 N.ar    1  UNL1       -0.0222
     24 N         138.8877  143.8045  161.3350 N.ar    1  UNL1       -0.0385
     25 C         139.7372  140.8564  165.9905 C.3     1  UNL1        0.2681
     26 C         139.9345  141.2150  167.4335 C.ar    1  UNL1        0.0265
     27 C         140.3335  142.6106  167.8117 C.ar    1  UNL1        0.0020
     28 C         140.5308  142.9693  169.2547 C.ar    1  UNL1        0.0294
     29 C         140.3292  141.9323  170.3196 C.ar    1  UNL1        0.1401
     30 F         140.5265  142.2908  171.7626 F       1  UNL1       -0.2042
     31 C         139.9302  140.5366  169.9414 C.ar    1  UNL1        0.0294
     32 C         139.7329  140.1780  168.4984 C.ar    1  UNL1        0.0020
     33 O         138.4751  140.1740  165.5530 O.3     1  UNL1       -0.4381
     34 C         138.2404  138.7346  165.9038 C.2     1  UNL1        0.3176
     35 O         137.2590  138.3754  166.9798 O.2     1  UNL1       -0.2501
     36 C         138.9871  137.6545  165.1787 C.3     1  UNL1        0.1096
     37 C         139.5319  137.9117  163.8050 C.3     1  UNL1        0.0116
     38 C         141.5459  137.7827  162.1688 C.3     1  UNL1        0.0000
     39 C         140.8179  137.2698  163.3759 C.3     1  UNL1        0.0006
@<TRIPOS>BOND
     1    38    39    1
     2    39    37    1
     3    37    36    1
     4    36    34    1
     5    34    35    2
     6    34    33    1
     7    25    33    1
     8    25     1    1
     9     1     2    2
    10     1     3   am
    11     3     4    1
    12     4     5    2
    13     5     6    1
    14     6     7    1
    15     7     8    1
    16     8     9    2
    17     8    10   am
    18    10    12    1
    19    12    13    1
    20    13    14   ar
    21    14    15   ar
    22    15    16    1
    23    15    17   ar
    24    17    18   ar
    25    18    19   ar
    26    19    20    1
    27    20    21   ar
    28    21    22   ar
    29    22    23   ar
    30    23    24   ar
    31    25    26    1
    32    26    27   ar
    33    27    28   ar
    34    28    29   ar
    35    29    30    1
    36    29    31   ar
    37    31    32   ar
    38     7     3    1
    39    19    13   ar
    40    24    20   ar
    41    32    26   ar
    42    10    11    1
@<TRIPOS>MOLECULE
*****
 39 42 0 0 0
SMALL
GASTEIGER

@<TRIPOS>ATOM
      1 C         141.3402  141.4108  164.7434 C.2     1  UNL1        0.2894
      2 O         141.3219  142.6494  163.8975 O.2     1  UNL1       -0.2688
      3 N         142.5572  140.5341  164.7633 N.am    1  UNL1       -0.1703
      4 N         142.7211  139.2712  165.5559 N.2     1  UNL1       -0.1783
      5 C         144.0891  138.7229  165.2765 C.2     1  UNL1        0.0938
      6 C         144.7706  139.6469  164.3113 C.3     1  UNL1        0.0799
      7 C         143.8238  140.7663  163.9941 C.3     1  UNL1        0.1809
      8 C         144.0958  141.9160  163.0699 C.2     1  UNL1        0.2432
      9 O         144.8953  143.0910  163.5496 O.2     1  UNL1       -0.2732
     10 N         143.5683  141.8908  161.6659 N.am    1  UNL1       -0.2990
     11 H         143.0435  141.1196  161.3510 H       1  UNL1        0.1498
     12 C         143.8403  143.0405  160.7417 C.3     1  UNL1        0.1179
     13 C         143.7556  142.8454  159.2568 C.ar    1  UNL1        0.0161
     14 C         144.8857  142.1889  158.5209 C.ar    1  UNL1        0.0103
     15 C         144.8010  141.9939  157.0361 C.ar    1  UNL1        0.0575
     16 CL        145.9312  141.3373  156.3001 Cl      1  UNL1       -0.0823
     17 C         143.5860  142.4555  156.2872 C.ar    1  UNL1        0.0129
     18 C         142.4559  143.1120  157.0231 C.ar    1  UNL1        0.0199
     19 C         142.5406  143.3070  158.5079 C.ar    1  UNL1        0.0839
     20 N         141.4104  143.9636  159.2439 N.ar    1  UNL1       -0.1889
     21 C         140.1705  143.2834  159.7436 C.ar    1  UNL1        0.2258
     22 N         139.3155  144.3151  160.4179 N.ar    1  UNL1       -0.1045
     23 N         140.0272  145.6330  160.3350 N.ar    1  UNL1       -0.0222
     24 N         141.3219  145.4157  159.6094 N.ar    1  UNL1       -0.0385
     25 C         140.1415  141.0490  165.5695 C.3     1  UNL1        0.2681
     26 C         140.0986  141.4063  167.0256 C.ar    1  UNL1        0.0265
     27 C         139.6220  140.4002  168.0309 C.ar    1  UNL1        0.0020
     28 C         139.5790  140.7575  169.4871 C.ar    1  UNL1        0.0294
     29 C         140.0126  142.1208  169.9380 C.ar    1  UNL1        0.1401
     30 F         139.9696  142.4782  171.3941 F       1  UNL1       -0.2042
     31 C         140.4891  143.1269  168.9326 C.ar    1  UNL1        0.0294
     32 C         140.5321  142.7697  167.4765 C.ar    1  UNL1        0.0020
     33 O         138.9858  140.3298  164.9392 O.3     1  UNL1       -0.4381
     34 C         138.5454  140.6897  163.5512 C.2     1  UNL1        0.3176
     35 O         139.1820  140.0255  162.3666 O.2     1  UNL1       -0.2501
     36 C         137.4683  141.7137  163.3480 C.3     1  UNL1        0.1096
     37 C         137.7953  143.1747  163.4407 C.3     1  UNL1        0.0116
     38 C         138.8308  144.8892  165.0954 C.3     1  UNL1        0.0000
     39 C         137.7860  143.8622  164.7738 C.3     1  UNL1        0.0006
@<TRIPOS>BOND
     1    38    39    1
     2    39    37    1
     3    37    36    1
     4    36    34    1
     5    34    35    2
     6    34    33    1
     7    25    33    1
     8    25     1    1
     9     1     2    2
    10     1     3   am
    11     3     4    1
    12     4     5    2
    13     5     6    1
    14     6     7    1
    15     7     8    1
    16     8     9    2
    17     8    10   am
    18    10    12    1
    19    12    13    1
    20    13    14   ar
    21    14    15   ar
    22    15    16    1
    23    15    17   ar
    24    17    18   ar
    25    18    19   ar
    26    19    20    1
    27    20    21   ar
    28    21    22   ar
    29    22    23   ar
    30    23    24   ar
    31    25    26    1
    32    26    27   ar
    33    27    28   ar
    34    28    29   ar
    35    29    30    1
    36    29    31   ar
    37    31    32   ar
    38     7     3    1
    39    19    13   ar
    40    24    20   ar
    41    32    26   ar
    42    10    11    1
@<TRIPOS>MOLECULE
*****
 39 42 0 0 0
SMALL
GASTEIGER

@<TRIPOS>ATOM
      1 C         141.3727  141.3550  165.3008 C.2     1  UNL1        0.2894
      2 O         141.5501  142.5152  164.3668 O.2     1  UNL1       -0.2688
      3 N         142.4457  140.3131  165.4149 N.am    1  UNL1       -0.1703
      4 N         142.4095  139.1035  166.3012 N.2     1  UNL1       -0.1783
      5 C         143.6848  138.3407  166.0967 C.2     1  UNL1        0.0938
      6 C         144.5091  139.0788  165.0840 C.3     1  UNL1        0.0799
      7 C         143.7433  140.2979  164.6626 C.3     1  UNL1        0.1809
      8 C         144.1958  141.3218  163.6643 C.2     1  UNL1        0.2432
      9 O         145.3227  142.2523  164.0024 O.2     1  UNL1       -0.2732
     10 N         143.5212  141.4154  162.3277 N.am    1  UNL1       -0.2990
     11 H         142.7816  140.8047  162.1057 H       1  UNL1        0.1498
     12 C         143.9737  142.4394  161.3293 C.3     1  UNL1        0.1179
     13 C         142.9621  143.2643  160.5902 C.ar    1  UNL1        0.0161
     14 C         142.0648  144.2018  161.3424 C.ar    1  UNL1        0.0103
     15 C         141.0533  145.0267  160.6033 C.ar    1  UNL1        0.0575
     16 CL        140.1559  145.9642  161.3555 Cl      1  UNL1       -0.0823
     17 C         140.9392  144.9141  159.1119 C.ar    1  UNL1        0.0129
     18 C         141.8365  143.9767  158.3596 C.ar    1  UNL1        0.0199
     19 C         142.8480  143.1518  159.0988 C.ar    1  UNL1        0.0839
     20 N         143.7454  142.2143  158.3465 N.ar    1  UNL1       -0.1889
     21 C         143.5237  140.7428  158.1577 C.ar    1  UNL1        0.2258
     22 N         144.6634  140.2029  157.3455 N.ar    1  UNL1       -0.1045
     23 N         145.5894  141.3406  157.0324 N.ar    1  UNL1       -0.0222
     24 N         145.0221  142.5837  157.6510 N.ar    1  UNL1       -0.0385
     25 C         140.1222  141.2368  166.1208 C.3     1  UNL1        0.2681
     26 C         140.1580  141.5348  167.5905 C.ar    1  UNL1        0.0265
     27 C         139.8322  140.4576  168.5822 C.ar    1  UNL1        0.0020
     28 C         139.8680  140.7555  170.0519 C.ar    1  UNL1        0.0294
     29 C         140.2297  142.1305  170.5298 C.ar    1  UNL1        0.1401
     30 F         140.2656  142.4285  171.9994 F       1  UNL1       -0.2042
     31 C         140.5555  143.2077  169.5381 C.ar    1  UNL1        0.0294
     32 C         140.5197  142.9098  168.0684 C.ar    1  UNL1        0.0020
     33 O         138.8359  140.8206  165.4710 O.3     1  UNL1       -0.4381
     34 C         138.4440  139.3730  165.4426 C.2     1  UNL1        0.3176
     35 O         137.5265  138.8236  166.4945 O.2     1  UNL1       -0.2501
     36 C         138.9697  138.4747  164.3624 C.3     1  UNL1        0.1096
     37 C         140.0360  137.4678  164.6772 C.3     1  UNL1        0.0116
     38 C         141.5780  138.0699  162.6748 C.3     1  UNL1        0.0000
     39 C         141.0091  137.0491  163.6153 C.3     1  UNL1        0.0006
@<TRIPOS>BOND
     1    38    39    1
     2    39    37    1
     3    37    36    1
     4    36    34    1
     5    34    35    2
     6    34    33    1
     7    25    33    1
     8    25     1    1
     9     1     2    2
    10     1     3   am
    11     3     4    1
    12     4     5    2
    13     5     6    1
    14     6     7    1
    15     7     8    1
    16     8     9    2
    17     8    10   am
    18    10    12    1
    19    12    13    1
    20    13    14   ar
    21    14    15   ar
    22    15    16    1
    23    15    17   ar
    24    17    18   ar
    25    18    19   ar
    26    19    20    1
    27    20    21   ar
    28    21    22   ar
    29    22    23   ar
    30    23    24   ar
    31    25    26    1
    32    26    27   ar
    33    27    28   ar
    34    28    29   ar
    35    29    30    1
    36    29    31   ar
    37    31    32   ar
    38     7     3    1
    39    19    13   ar
    40    24    20   ar
    41    32    26   ar
    42    10    11    1
@<TRIPOS>MOLECULE
*****
 39 42 0 0 0
SMALL
GASTEIGER

@<TRIPOS>ATOM
      1 C         140.9807  142.4141  163.7858 C.2     1  UNL1        0.2894
      2 O         140.9529  141.5619  162.5518 O.2     1  UNL1       -0.2688
      3 N         139.7782  143.2279  164.1625 N.am    1  UNL1       -0.1703
      4 N         139.6591  144.1222  165.3608 N.2     1  UNL1       -0.1783
      5 C         138.2910  144.7373  165.3460 C.2     1  UNL1        0.0938
      6 C         137.5647  144.2230  164.1385 C.3     1  UNL1        0.0799
      7 C         138.4839  143.2902  163.4071 C.3     1  UNL1        0.1809
      8 C         138.1647  142.5497  162.1423 C.2     1  UNL1        0.2432
      9 O         137.2087  141.3941  162.1706 O.2     1  UNL1       -0.2732
     10 N         138.8016  142.9647  160.8491 N.am    1  UNL1       -0.2990
     11 H         139.4290  143.7231  160.8305 H       1  UNL1        0.1498
     12 C         138.4824  142.2241  159.5843 C.3     1  UNL1        0.1179
     13 C         138.6163  142.9123  158.2581 C.ar    1  UNL1        0.0161
     14 C         137.5378  142.7675  157.2258 C.ar    1  UNL1        0.0103
     15 C         137.6718  143.4556  155.8997 C.ar    1  UNL1        0.0575
     16 CL        136.5932  143.3108  154.8672 Cl      1  UNL1       -0.0823
     17 C         138.8842  144.2884  155.6060 C.ar    1  UNL1        0.0129
     18 C         139.9627  144.4332  156.6383 C.ar    1  UNL1        0.0199
     19 C         139.8288  143.7451  157.9644 C.ar    1  UNL1        0.0839
     20 N         140.9073  143.8898  158.9968 N.ar    1  UNL1       -0.1889
     21 C         142.1537  143.0607  159.0921 C.ar    1  UNL1        0.2258
     22 N         142.9455  143.5476  160.2694 N.ar    1  UNL1       -0.1045
     23 N         142.1885  144.6777  160.9018 N.ar    1  UNL1       -0.0222
     24 N         140.9288  144.8892  160.1153 N.ar    1  UNL1       -0.0385
     25 C         142.2109  142.4525  164.6432 C.3     1  UNL1        0.2681
     26 C         142.3490  141.5073  165.7997 C.ar    1  UNL1        0.0265
     27 C         142.6670  140.0622  165.5533 C.ar    1  UNL1        0.0020
     28 C         142.8051  139.1169  166.7097 C.ar    1  UNL1        0.0294
     29 C         142.6250  139.6167  168.1125 C.ar    1  UNL1        0.1401
     30 F         142.7630  138.6715  169.2690 F       1  UNL1       -0.2042
     31 C         142.3069  141.0617  168.3589 C.ar    1  UNL1        0.0294
     32 C         142.1689  142.0070  167.2024 C.ar    1  UNL1        0.0020
     33 O         143.3031  143.4361  164.3439 O.3     1  UNL1       -0.4381
     34 C         144.6903  143.1972  164.8622 C.2     1  UNL1        0.3176
     35 O         145.2026  143.9909  166.0274 O.2     1  UNL1       -0.2501
     36 C         145.5652  142.1647  164.2153 C.3     1  UNL1        0.1096
     37 C         145.3030  141.7390  162.8011 C.3     1  UNL1        0.0116
     38 C         144.0258  140.1806  161.1609 C.3     1  UNL1        0.0000
     39 C         144.5845  140.4512  162.5264 C.3     1  UNL1        0.0006
@<TRIPOS>BOND
     1    38    39    1
     2    39    37    1
     3    37    36    1
     4    36    34    1
     5    34    35    2
     6    34    33    1
     7    25    33    1
     8    25     1    1
     9     1     2    2
    10     1     3   am
    11     3     4    1
    12     4     5    2
    13     5     6    1
    14     6     7    1
    15     7     8    1
    16     8     9    2
    17     8    10   am
    18    10    12    1
    19    12    13    1
    20    13    14   ar
    21    14    15   ar
    22    15    16    1
    23    15    17   ar
    24    17    18   ar
    25    18    19   ar
    26    19    20    1
    27    20    21   ar
    28    21    22   ar
    29    22    23   ar
    30    23    24   ar
    31    25    26    1
    32    26    27   ar
    33    27    28   ar
    34    28    29   ar
    35    29    30    1
    36    29    31   ar
    37    31    32   ar
    38     7     3    1
    39    19    13   ar
    40    24    20   ar
    41    32    26   ar
    42    10    11    1
@<TRIPOS>MOLECULE
*****
 39 42 0 0 0
SMALL
GASTEIGER

@<TRIPOS>ATOM
      1 C         140.3622  140.9334  164.7486 C.2     1  UNL1        0.2894
      2 O         141.2889  140.9606  163.5694 O.2     1  UNL1       -0.2688
      3 N         139.6304  139.6716  165.0984 N.am    1  UNL1       -0.1703
      4 N         138.6764  139.4939  166.2422 N.2     1  UNL1       -0.1783
      5 C         138.1804  138.0785  166.2165 C.2     1  UNL1        0.0938
      6 C         138.8279  137.3815  165.0568 C.3     1  UNL1        0.0799
      7 C         139.7240  138.3661  164.3658 C.3     1  UNL1        0.1809
      8 C         140.5659  138.0931  163.1547 C.2     1  UNL1        0.2432
      9 O         139.9210  137.6325  161.8812 O.2     1  UNL1       -0.2732
     10 N         142.0529  138.2807  163.2172 N.am    1  UNL1       -0.2990
     11 H         142.4762  138.5831  164.0530 H       1  UNL1        0.1498
     12 C         142.8948  138.0077  162.0062 C.3     1  UNL1        0.1179
     13 C         142.8854  138.9683  160.8541 C.ar    1  UNL1        0.0161
     14 C         142.1020  138.6469  159.6160 C.ar    1  UNL1        0.0103
     15 C         142.0926  139.6074  158.4639 C.ar    1  UNL1        0.0575
     16 CL        141.3093  139.2860  157.2257 Cl      1  UNL1       -0.0823
     17 C         142.8666  140.8895  158.5501 C.ar    1  UNL1        0.0129
     18 C         143.6499  141.2109  159.7882 C.ar    1  UNL1        0.0199
     19 C         143.6593  140.2503  160.9402 C.ar    1  UNL1        0.0839
     20 N         144.4427  140.5718  162.1784 N.ar    1  UNL1       -0.1889
     21 C         145.1026  141.8826  162.4888 C.ar    1  UNL1        0.2258
     22 N         145.7714  141.7597  163.8258 N.ar    1  UNL1       -0.1045
     23 N         145.5249  140.3729  164.3417 N.ar    1  UNL1       -0.0222
     24 N         144.7037  139.6388  163.3236 N.ar    1  UNL1       -0.0385
     25 C         140.1675  142.1680  165.5780 C.3     1  UNL1        0.2681
     26 C         140.9685  142.3638  166.8310 C.ar    1  UNL1        0.0265
     27 C         140.3034  142.8767  168.0738 C.ar    1  UNL1        0.0020
     28 C         141.1044  143.0726  169.3268 C.ar    1  UNL1        0.0294
     29 C         142.5704  142.7555  169.3371 C.ar    1  UNL1        0.1401
     30 F         143.3715  142.9513  170.5900 F       1  UNL1       -0.2042
     31 C         143.2355  142.2426  168.0942 C.ar    1  UNL1        0.0294
     32 C         142.4346  142.0467  166.8412 C.ar    1  UNL1        0.0020
     33 O         139.1717  143.2067  165.1544 O.3     1  UNL1       -0.4381
     34 C         139.1987  143.7447  163.7545 C.2     1  UNL1        0.3176
     35 O         138.5846  142.9561  162.6360 O.2     1  UNL1       -0.2501
     36 C         139.8398  145.0713  163.4730 C.3     1  UNL1        0.1096
     37 C         141.2847  145.1367  163.0752 C.3     1  UNL1        0.0116
     38 C         143.7245  145.1125  163.9676 C.3     1  UNL1        0.0000
     39 C         142.3357  144.5457  163.9674 C.3     1  UNL1        0.0006
@<TRIPOS>BOND
     1    38    39    1
     2    39    37    1
     3    37    36    1
     4    36    34    1
     5    34    35    2
     6    34    33    1
     7    25    33    1
     8    25     1    1
     9     1     2    2
    10     1     3   am
    11     3     4    1
    12     4     5    2
    13     5     6    1
    14     6     7    1
    15     7     8    1
    16     8     9    2
    17     8    10   am
    18    10    12    1
    19    12    13    1
    20    13    14   ar
    21    14    15   ar
    22    15    16    1
    23    15    17   ar
    24    17    18   ar
    25    18    19   ar
    26    19    20    1
    27    20    21   ar
    28    21    22   ar
    29    22    23   ar
    30    23    24   ar
    31    25    26    1
    32    26    27   ar
    33    27    28   ar
    34    28    29   ar
    35    29    30    1
    36    29    31   ar
    37    31    32   ar
    38     7     3    1
    39    19    13   ar
    40    24    20   ar
    41    32    26   ar
    42    10    11    1
