@<TRIPOS>MOLECULE
*****
 38 43 0 0 0
SMALL
GASTEIGER

@<TRIPOS>ATOM
      1 C         142.5795  142.3349  166.5487 C.ar    1  UNL1        0.0536
      2 C         141.2611  142.7065  165.9374 C.ar    1  UNL1        0.0049
      3 C         141.1492  142.8959  164.4537 C.ar    1  UNL1        0.0305
      4 C         142.3557  142.7136  163.5812 C.ar    1  UNL1        0.1474
      5 O         142.2437  142.9030  162.0974 O.2     1  UNL1       -0.4400
      6 C         143.4502  142.7207  161.2249 C.ar    1  UNL1        0.2024
      7 C         144.7687  142.3491  161.8363 C.ar    1  UNL1        0.0955
      8 C         144.8805  142.1597  163.3201 C.ar    1  UNL1        0.2030
      9 O         146.1989  141.7881  163.9314 O.2     1  UNL1       -0.2863
     10 C         143.6741  142.3420  164.1925 C.ar    1  UNL1        0.0735
     11 C         143.7860  142.1526  165.6763 C.ar    1  UNL1        0.0107
     12 O         143.8569  142.7264  168.7770 O.2     1  UNL1       -0.2699
     13 C         142.6914  142.1455  168.0326 C.2     1  UNL1        0.2492
     14 N         141.6379  141.3753  168.7719 N.am    1  UNL1       -0.2709
     15 C         140.4724  140.7943  168.0276 C.3     1  UNL1        0.1258
     16 C         139.4188  140.0241  168.7670 C.3     1  UNL1        0.1637
     17 O         139.5308  139.8347  170.2508 O.3     1  UNL1       -0.3501
     18 C         140.6963  140.4156  170.9951 C.3     1  UNL1        0.1637
     19 C         141.7498  141.1859  170.2558 C.3     1  UNL1        0.1258
     20 N         143.3383  142.9101  159.7412 N.pl3   1  UNL1       -0.2742
     21 C         142.2070  143.7132  159.1708 C.3     1  UNL1        0.1257
     22 C         142.0952  143.9026  157.6870 C.3     1  UNL1        0.1637
     23 O         143.1145  143.2889  156.7736 O.3     1  UNL1       -0.3501
     24 C         144.2457  142.4858  157.3440 C.3     1  UNL1        0.1637
     25 C         144.3577  142.2964  158.8278 C.3     1  UNL1        0.1257
     26 C         139.8308  143.2675  163.8423 C.3     1  UNL1        0.0983
     27 C         139.3721  144.6572  163.5129 C.3     1  UNL1        0.0261
     28 C         137.9974  144.5632  162.9201 C.3     1  UNL1        0.0235
     29 C         137.6065  143.1155  162.8830 C.3     1  UNL1        0.0911
     30 N         138.7396  142.3147  163.4530 N.pl3   1  UNL1       -0.3051
     31 C         138.7752  140.8231  163.6067 C.ar    1  UNL1        0.0525
     32 C         138.4352  140.1967  164.9266 C.ar    1  UNL1        0.0443
     33 C         138.4708  138.7051  165.0804 C.ar    1  UNL1        0.1436
     34 F         138.1308  138.0788  166.4002 F       1  UNL1       -0.2041
     35 C         138.8465  137.8397  163.9141 C.ar    1  UNL1        0.0593
     36 C         139.1865  138.4660  162.5942 C.ar    1  UNL1        0.1436
     37 F         139.5622  137.6007  161.4280 F       1  UNL1       -0.2041
     38 C         139.1509  139.9577  162.4406 C.ar    1  UNL1        0.0443
@<TRIPOS>BOND
     1    12    13    2
     2    13     1    1
     3     1     2   ar
     4     2     3   ar
     5    26     3    1
     6    26    27    1
     7    27    28    1
     8    28    29    1
     9    29    30    1
    10    30    31    1
    11    31    32   ar
    12    32    33   ar
    13    33    34    1
    14    33    35   ar
    15    35    36   ar
    16    36    37    1
    17    36    38   ar
    18     3     4   ar
    19     4     5   ar
    20     5     6   ar
    21     6    20    1
    22    20    21    1
    23    21    22    1
    24    22    23    1
    25    23    24    1
    26    24    25    1
    27     6     7   ar
    28     7     8   ar
    29     8     9    2
    30     8    10   ar
    31    10    11   ar
    32    13    14   am
    33    14    15    1
    34    15    16    1
    35    16    17    1
    36    17    18    1
    37    18    19    1
    38    11     1   ar
    39    19    14    1
    40    30    26    1
    41    38    31   ar
    42    10     4   ar
    43    25    20    1
@<TRIPOS>MOLECULE
*****
 38 43 0 0 0
SMALL
GASTEIGER

@<TRIPOS>ATOM
      1 C         142.5815  142.3328  166.5469 C.ar    1  UNL1        0.0536
      2 C         141.2637  142.7056  165.9352 C.ar    1  UNL1        0.0049
      3 C         141.1526  142.8958  164.4515 C.ar    1  UNL1        0.0305
      4 C         142.3594  142.7132  163.5795 C.ar    1  UNL1        0.1474
      5 O         142.2483  142.9035  162.0958 O.2     1  UNL1       -0.4400
      6 C         143.4551  142.7209  161.2238 C.ar    1  UNL1        0.2024
      7 C         144.7729  142.3480  161.8356 C.ar    1  UNL1        0.0955
      8 C         144.8840  142.1578  163.3193 C.ar    1  UNL1        0.2030
      9 O         146.2018  141.7850  163.9310 O.2     1  UNL1       -0.2863
     10 C         143.6772  142.3404  164.1913 C.ar    1  UNL1        0.0735
     11 C         143.7883  142.1502  165.6750 C.ar    1  UNL1        0.0107
     12 O         143.8582  142.7223  168.7760 O.2     1  UNL1       -0.2699
     13 C         142.6926  142.1425  168.0307 C.2     1  UNL1        0.2492
     14 N         141.6383  141.3725  168.7692 N.am    1  UNL1       -0.2709
     15 C         140.4727  140.7928  168.0239 C.3     1  UNL1        0.1258
     16 C         139.4183  140.0228  168.7625 C.3     1  UNL1        0.1637
     17 O         139.5295  139.8325  170.2462 O.3     1  UNL1       -0.3501
     18 C         140.6950  140.4123  170.9914 C.3     1  UNL1        0.1637
     19 C         141.7494  141.1823  170.2530 C.3     1  UNL1        0.1258
     20 N         143.3440  142.9111  159.7401 N.pl3   1  UNL1       -0.2742
     21 C         144.3629  142.2965  158.8267 C.3     1  UNL1        0.1257
     22 C         144.2519  142.4867  157.3430 C.3     1  UNL1        0.1637
     23 O         143.1219  143.2915  156.7726 O.3     1  UNL1       -0.3501
     24 C         142.1030  143.9061  157.6858 C.3     1  UNL1        0.1637
     25 C         142.2140  143.7159  159.1696 C.3     1  UNL1        0.1257
     26 C         139.8347  143.2687  163.8397 C.3     1  UNL1        0.0983
     27 C         139.3785  144.6585  163.5077 C.3     1  UNL1        0.0261
     28 C         138.0035  144.5659  162.9153 C.3     1  UNL1        0.0235
     29 C         137.6100  143.1188  162.8812 C.3     1  UNL1        0.0911
     30 N         138.7417  142.3171  163.4525 N.pl3   1  UNL1       -0.3051
     31 C         138.7747  140.8256  163.6091 C.ar    1  UNL1        0.0525
     32 C         139.1511  139.9575  162.4452 C.ar    1  UNL1        0.0443
     33 C         139.1841  138.4660  162.6016 C.ar    1  UNL1        0.1436
     34 F         139.5605  137.5979  161.4378 F       1  UNL1       -0.2041
     35 C         138.8407  137.8427  163.9222 C.ar    1  UNL1        0.0593
     36 C         138.4643  138.7109  165.0860 C.ar    1  UNL1        0.1436
     37 F         138.1209  138.0877  166.4065 F       1  UNL1       -0.2041
     38 C         138.4313  140.2023  164.9295 C.ar    1  UNL1        0.0443
@<TRIPOS>BOND
     1    12    13    2
     2    13     1    1
     3     1     2   ar
     4     2     3   ar
     5    26     3    1
     6    26    27    1
     7    27    28    1
     8    28    29    1
     9    29    30    1
    10    30    31    1
    11    31    32   ar
    12    32    33   ar
    13    33    34    1
    14    33    35   ar
    15    35    36   ar
    16    36    37    1
    17    36    38   ar
    18     3     4   ar
    19     4     5   ar
    20     5     6   ar
    21     6    20    1
    22    20    21    1
    23    21    22    1
    24    22    23    1
    25    23    24    1
    26    24    25    1
    27     6     7   ar
    28     7     8   ar
    29     8     9    2
    30     8    10   ar
    31    10    11   ar
    32    13    14   am
    33    14    15    1
    34    15    16    1
    35    16    17    1
    36    17    18    1
    37    18    19    1
    38    11     1   ar
    39    19    14    1
    40    30    26    1
    41    38    31   ar
    42    10     4   ar
    43    25    20    1
@<TRIPOS>MOLECULE
*****
 38 43 0 0 0
SMALL
GASTEIGER

@<TRIPOS>ATOM
      1 C         142.3685  140.0309  166.7369 C.ar    1  UNL1        0.0536
      2 C         142.7483  141.2913  166.0179 C.ar    1  UNL1        0.0049
      3 C         142.6955  141.3451  164.5198 C.ar    1  UNL1        0.0305
      4 C         142.2629  140.1384  163.7408 C.ar    1  UNL1        0.1474
      5 O         142.2102  140.1922  162.2426 O.2     1  UNL1       -0.4400
      6 C         141.7776  138.9856  161.4636 C.ar    1  UNL1        0.2024
      7 C         141.3978  137.7251  162.1827 C.ar    1  UNL1        0.0955
      8 C         141.4506  137.6714  163.6808 C.ar    1  UNL1        0.2030
      9 O         141.0708  136.4110  164.3998 O.2     1  UNL1       -0.2863
     10 C         141.8831  138.8780  164.4598 C.ar    1  UNL1        0.0735
     11 C         141.9359  138.8243  165.9579 C.ar    1  UNL1        0.0107
     12 O         143.1401  138.8529  168.9203 O.2     1  UNL1       -0.2699
     13 C         142.4213  139.9771  168.2351 C.2     1  UNL1        0.2492
     14 N         141.7552  141.0474  169.0479 N.am    1  UNL1       -0.2709
     15 C         141.0364  142.1716  168.3627 C.3     1  UNL1        0.1258
     16 C         140.3703  143.2419  169.1756 C.3     1  UNL1        0.1637
     17 O         140.4231  143.1881  170.6737 O.3     1  UNL1       -0.3501
     18 C         141.1420  142.0639  171.3589 C.3     1  UNL1        0.1637
     19 C         141.8080  140.9936  170.5461 C.3     1  UNL1        0.1258
     20 N         141.7248  139.0394  159.9655 N.pl3   1  UNL1       -0.2742
     21 C         142.5306  138.0708  159.1514 C.3     1  UNL1        0.1257
     22 C         142.4778  138.1246  157.6533 C.3     1  UNL1        0.1637
     23 O         141.6192  139.1469  156.9693 O.3     1  UNL1       -0.3501
     24 C         140.8135  140.1154  157.7833 C.3     1  UNL1        0.1637
     25 C         140.8663  140.0616  159.2815 C.3     1  UNL1        0.1257
     26 C         143.0753  142.6055  163.8007 C.3     1  UNL1        0.0983
     27 C         144.4517  142.9716  163.3302 C.3     1  UNL1        0.0261
     28 C         144.3724  144.3135  162.6645 C.3     1  UNL1        0.0235
     29 C         142.9469  144.7768  162.7236 C.3     1  UNL1        0.0911
     30 N         142.1453  143.7212  163.4258 N.pl3   1  UNL1       -0.3051
     31 C         140.6723  143.7722  163.7042 C.ar    1  UNL1        0.0525
     32 C         140.1481  144.6352  164.8135 C.ar    1  UNL1        0.0443
     33 C         138.6751  144.6863  165.0921 C.ar    1  UNL1        0.1436
     34 F         138.1510  145.5492  166.2013 F       1  UNL1       -0.2041
     35 C         137.7261  143.8744  164.2611 C.ar    1  UNL1        0.0593
     36 C         138.2503  143.0114  163.1518 C.ar    1  UNL1        0.1436
     37 F         137.3014  142.1995  162.3209 F       1  UNL1       -0.2041
     38 C         139.7233  142.9604  162.8734 C.ar    1  UNL1        0.0443
@<TRIPOS>BOND
     1    12    13    2
     2    13     1    1
     3     1     2   ar
     4     2     3   ar
     5    26     3    1
     6    26    27    1
     7    27    28    1
     8    28    29    1
     9    29    30    1
    10    30    31    1
    11    31    32   ar
    12    32    33   ar
    13    33    34    1
    14    33    35   ar
    15    35    36   ar
    16    36    37    1
    17    36    38   ar
    18     3     4   ar
    19     4     5   ar
    20     5     6   ar
    21     6    20    1
    22    20    21    1
    23    21    22    1
    24    22    23    1
    25    23    24    1
    26    24    25    1
    27     6     7   ar
    28     7     8   ar
    29     8     9    2
    30     8    10   ar
    31    10    11   ar
    32    13    14   am
    33    14    15    1
    34    15    16    1
    35    16    17    1
    36    17    18    1
    37    18    19    1
    38    11     1   ar
    39    19    14    1
    40    30    26    1
    41    38    31   ar
    42    10     4   ar
    43    25    20    1
@<TRIPOS>MOLECULE
*****
 38 43 0 0 0
SMALL
GASTEIGER

@<TRIPOS>ATOM
      1 C         142.3644  140.0204  166.7378 C.ar    1  UNL1        0.0536
      2 C         142.7512  141.2769  166.0157 C.ar    1  UNL1        0.0049
      3 C         142.6982  141.3275  164.5175 C.ar    1  UNL1        0.0305
      4 C         142.2582  140.1216  163.7415 C.ar    1  UNL1        0.1474
      5 O         142.2051  140.1722  162.2432 O.2     1  UNL1       -0.4400
      6 C         141.7652  138.9663  161.4672 C.ar    1  UNL1        0.2024
      7 C         141.3783  137.7098  162.1894 C.ar    1  UNL1        0.0955
      8 C         141.4313  137.6592  163.6876 C.ar    1  UNL1        0.2030
      9 O         141.0445  136.4027  164.4097 O.2     1  UNL1       -0.2863
     10 C         141.8713  138.8651  164.4636 C.ar    1  UNL1        0.0735
     11 C         141.9244  138.8145  165.9618 C.ar    1  UNL1        0.0107
     12 O         143.1364  138.8471  168.9235 O.2     1  UNL1       -0.2699
     13 C         142.4174  139.9698  168.2361 C.2     1  UNL1        0.2492
     14 N         141.7515  141.0419  169.0468 N.am    1  UNL1       -0.2709
     15 C         141.0326  142.1646  168.3593 C.3     1  UNL1        0.1258
     16 C         140.3667  143.2366  169.1701 C.3     1  UNL1        0.1637
     17 O         140.4197  143.1860  170.6683 O.3     1  UNL1       -0.3501
     18 C         141.1387  142.0633  171.3557 C.3     1  UNL1        0.1637
     19 C         141.8046  140.9912  170.5450 C.3     1  UNL1        0.1258
     20 N         141.7121  139.0169  159.9690 N.pl3   1  UNL1       -0.2742
     21 C         140.7649  139.9565  159.2833 C.3     1  UNL1        0.1257
     22 C         140.7118  140.0070  157.7852 C.3     1  UNL1        0.1637
     23 O         141.6059  139.1181  156.9726 O.3     1  UNL1       -0.3501
     24 C         142.5531  138.1786  157.6581 C.3     1  UNL1        0.1637
     25 C         142.6062  138.1279  159.1564 C.3     1  UNL1        0.1257
     26 C         143.0851  142.5840  163.7953 C.3     1  UNL1        0.0983
     27 C         144.4637  142.9416  163.3247 C.3     1  UNL1        0.0261
     28 C         144.3919  144.2821  162.6554 C.3     1  UNL1        0.0235
     29 C         142.9688  144.7530  162.7124 C.3     1  UNL1        0.0911
     30 N         142.1612  143.7035  163.4169 N.pl3   1  UNL1       -0.3051
     31 C         140.6883  143.7631  163.6942 C.ar    1  UNL1        0.0525
     32 C         139.7343  142.9649  162.8559 C.ar    1  UNL1        0.0443
     33 C         138.2614  143.0244  163.1331 C.ar    1  UNL1        0.1436
     34 F         137.3075  142.2262  162.2948 F       1  UNL1       -0.2041
     35 C         137.7424  143.8822  164.2489 C.ar    1  UNL1        0.0593
     36 C         138.6963  144.6804  165.0873 C.ar    1  UNL1        0.1436
     37 F         138.1773  145.5382  166.2030 F       1  UNL1       -0.2041
     38 C         140.1692  144.6208  164.8099 C.ar    1  UNL1        0.0443
@<TRIPOS>BOND
     1    12    13    2
     2    13     1    1
     3     1     2   ar
     4     2     3   ar
     5    26     3    1
     6    26    27    1
     7    27    28    1
     8    28    29    1
     9    29    30    1
    10    30    31    1
    11    31    32   ar
    12    32    33   ar
    13    33    34    1
    14    33    35   ar
    15    35    36   ar
    16    36    37    1
    17    36    38   ar
    18     3     4   ar
    19     4     5   ar
    20     5     6   ar
    21     6    20    1
    22    20    21    1
    23    21    22    1
    24    22    23    1
    25    23    24    1
    26    24    25    1
    27     6     7   ar
    28     7     8   ar
    29     8     9    2
    30     8    10   ar
    31    10    11   ar
    32    13    14   am
    33    14    15    1
    34    15    16    1
    35    16    17    1
    36    17    18    1
    37    18    19    1
    38    11     1   ar
    39    19    14    1
    40    30    26    1
    41    38    31   ar
    42    10     4   ar
    43    25    20    1
@<TRIPOS>MOLECULE
*****
 38 43 0 0 0
SMALL
GASTEIGER

@<TRIPOS>ATOM
      1 C         142.3720  140.1100  166.3997 C.ar    1  UNL1        0.0536
      2 C         141.1683  139.6543  165.6295 C.ar    1  UNL1        0.0049
      3 C         141.1318  139.8041  164.1375 C.ar    1  UNL1        0.0305
      4 C         142.2990  140.4096  163.4157 C.ar    1  UNL1        0.1474
      5 O         142.2625  140.5594  161.9236 O.2     1  UNL1       -0.4400
      6 C         143.4297  141.1649  161.2018 C.ar    1  UNL1        0.2024
      7 C         144.6334  141.6207  161.9721 C.ar    1  UNL1        0.0955
      8 C         144.6699  141.4709  163.4642 C.ar    1  UNL1        0.2030
      9 O         145.8736  141.9266  164.2344 O.2     1  UNL1       -0.2863
     10 C         143.5027  140.8654  164.1859 C.ar    1  UNL1        0.0735
     11 C         143.5392  140.7156  165.6780 C.ar    1  UNL1        0.0107
     12 O         143.0655  138.7615  168.5094 O.2     1  UNL1       -0.2699
     13 C         142.4086  139.9603  167.8918 C.2     1  UNL1        0.2492
     14 N         141.7882  141.0093  168.7663 N.am    1  UNL1       -0.2709
     15 C         141.1313  142.2080  168.1488 C.3     1  UNL1        0.1258
     16 C         140.5109  143.2570  169.0233 C.3     1  UNL1        0.1637
     17 O         140.5474  143.1072  170.5153 O.3     1  UNL1       -0.3501
     18 C         141.2044  141.9085  171.1329 C.3     1  UNL1        0.1637
     19 C         141.8247  140.8595  170.2584 C.3     1  UNL1        0.1258
     20 N         143.3932  141.3147  159.7098 N.pl3   1  UNL1       -0.2742
     21 C         143.5617  142.6692  159.0876 C.3     1  UNL1        0.1257
     22 C         143.5252  142.8190  157.5956 C.3     1  UNL1        0.1637
     23 O         143.3202  141.6143  156.7256 O.3     1  UNL1       -0.3501
     24 C         143.1517  140.2598  157.3477 C.3     1  UNL1        0.1637
     25 C         143.1882  140.1100  158.8399 C.3     1  UNL1        0.1257
     26 C         139.9281  139.3483  163.3671 C.3     1  UNL1        0.0983
     27 C         139.5901  137.9292  163.0179 C.3     1  UNL1        0.0261
     28 C         138.3042  137.9355  162.2458 C.3     1  UNL1        0.0235
     29 C         137.8473  139.3586  162.1177 C.3     1  UNL1        0.0911
     30 N         138.8509  140.2317  162.8108 N.pl3   1  UNL1       -0.3051
     31 C         138.7884  141.7258  162.9271 C.ar    1  UNL1        0.0525
     32 C         138.0315  142.3592  164.0566 C.ar    1  UNL1        0.0443
     33 C         137.9689  143.8534  164.1730 C.ar    1  UNL1        0.1436
     34 F         137.2120  144.4867  165.3025 F       1  UNL1       -0.2041
     35 C         138.6634  144.7142  163.1597 C.ar    1  UNL1        0.0593
     36 C         139.4204  144.0809  162.0302 C.ar    1  UNL1        0.1436
     37 F         140.1148  144.9417  161.0169 F       1  UNL1       -0.2041
     38 C         139.4829  142.5867  161.9139 C.ar    1  UNL1        0.0443
@<TRIPOS>BOND
     1    12    13    2
     2    13     1    1
     3     1     2   ar
     4     2     3   ar
     5    26     3    1
     6    26    27    1
     7    27    28    1
     8    28    29    1
     9    29    30    1
    10    30    31    1
    11    31    32   ar
    12    32    33   ar
    13    33    34    1
    14    33    35   ar
    15    35    36   ar
    16    36    37    1
    17    36    38   ar
    18     3     4   ar
    19     4     5   ar
    20     5     6   ar
    21     6    20    1
    22    20    21    1
    23    21    22    1
    24    22    23    1
    25    23    24    1
    26    24    25    1
    27     6     7   ar
    28     7     8   ar
    29     8     9    2
    30     8    10   ar
    31    10    11   ar
    32    13    14   am
    33    14    15    1
    34    15    16    1
    35    16    17    1
    36    17    18    1
    37    18    19    1
    38    11     1   ar
    39    19    14    1
    40    30    26    1
    41    38    31   ar
    42    10     4   ar
    43    25    20    1
@<TRIPOS>MOLECULE
*****
 38 43 0 0 0
SMALL
GASTEIGER

@<TRIPOS>ATOM
      1 C         141.3204  139.2614  162.1733 C.ar    1  UNL1        0.0536
      2 C         142.2212  140.4168  162.4949 C.ar    1  UNL1        0.0049
      3 C         142.2086  141.0177  163.8692 C.ar    1  UNL1        0.0305
      4 C         141.2952  140.4632  164.9219 C.ar    1  UNL1        0.1474
      5 O         141.2827  141.0642  166.2962 O.2     1  UNL1       -0.4400
      6 C         140.3693  140.5096  167.3490 C.ar    1  UNL1        0.2024
      7 C         139.4685  139.3541  167.0273 C.ar    1  UNL1        0.0955
      8 C         139.4810  138.7532  165.6531 C.ar    1  UNL1        0.2030
      9 O         138.5802  137.5977  165.3315 O.2     1  UNL1       -0.2863
     10 C         140.3944  139.3077  164.6003 C.ar    1  UNL1        0.0735
     11 C         140.4070  138.7068  163.2260 C.ar    1  UNL1        0.0107
     12 O         142.3650  137.6331  160.4390 O.2     1  UNL1       -0.2699
     13 C         141.3329  138.6604  160.7990 C.2     1  UNL1        0.2492
     14 N         140.3135  139.0867  159.7846 N.am    1  UNL1       -0.2709
     15 C         139.2814  140.1140  160.1446 C.3     1  UNL1        0.1258
     16 C         138.2619  140.5403  159.1302 C.3     1  UNL1        0.1637
     17 O         138.2745  139.9394  157.7559 O.3     1  UNL1       -0.3501
     18 C         139.3065  138.9121  157.3960 C.3     1  UNL1        0.1637
     19 C         140.3260  138.4857  158.4103 C.3     1  UNL1        0.1258
     20 N         140.3567  141.1105  168.7232 N.pl3   1  UNL1       -0.2742
     21 C         140.5210  140.2316  169.9277 C.3     1  UNL1        0.1257
     22 C         140.5085  140.8325  171.3020 C.3     1  UNL1        0.1637
     23 O         140.3316  142.3123  171.4719 O.3     1  UNL1       -0.3501
     24 C         140.1672  143.1912  170.2676 C.3     1  UNL1        0.1637
     25 C         140.1798  142.5903  168.8932 C.3     1  UNL1        0.1257
     26 C         143.1094  142.1732  164.1908 C.3     1  UNL1        0.0983
     27 C         144.5238  142.0787  164.6811 C.3     1  UNL1        0.0261
     28 C         145.0425  143.4732  164.8719 C.3     1  UNL1        0.0235
     29 C         143.9486  144.4296  164.4995 C.3     1  UNL1        0.0911
     30 N         142.7539  143.6262  164.0785 N.pl3   1  UNL1       -0.3051
     31 C         141.4352  144.1787  163.6249 C.ar    1  UNL1        0.0525
     32 C         140.2360  144.0886  164.5214 C.ar    1  UNL1        0.0443
     33 C         138.9172  144.6411  164.0679 C.ar    1  UNL1        0.1436
     34 F         137.7181  144.5510  164.9644 F       1  UNL1       -0.2041
     35 C         138.7978  145.2838  162.7177 C.ar    1  UNL1        0.0593
     36 C         139.9970  145.3739  161.8213 C.ar    1  UNL1        0.1436
     37 F         139.8776  146.0165  160.4712 F       1  UNL1       -0.2041
     38 C         141.3157  144.8214  162.2749 C.ar    1  UNL1        0.0443
@<TRIPOS>BOND
     1    12    13    2
     2    13     1    1
     3     1     2   ar
     4     2     3   ar
     5    26     3    1
     6    26    27    1
     7    27    28    1
     8    28    29    1
     9    29    30    1
    10    30    31    1
    11    31    32   ar
    12    32    33   ar
    13    33    34    1
    14    33    35   ar
    15    35    36   ar
    16    36    37    1
    17    36    38   ar
    18     3     4   ar
    19     4     5   ar
    20     5     6   ar
    21     6    20    1
    22    20    21    1
    23    21    22    1
    24    22    23    1
    25    23    24    1
    26    24    25    1
    27     6     7   ar
    28     7     8   ar
    29     8     9    2
    30     8    10   ar
    31    10    11   ar
    32    13    14   am
    33    14    15    1
    34    15    16    1
    35    16    17    1
    36    17    18    1
    37    18    19    1
    38    11     1   ar
    39    19    14    1
    40    30    26    1
    41    38    31   ar
    42    10     4   ar
    43    25    20    1
@<TRIPOS>MOLECULE
*****
 38 43 0 0 0
SMALL
GASTEIGER

@<TRIPOS>ATOM
      1 C         140.9848  143.6697  161.8253 C.ar    1  UNL1        0.0536
      2 C         141.9867  142.5862  162.0934 C.ar    1  UNL1        0.0049
      3 C         142.1420  142.0346  163.4796 C.ar    1  UNL1        0.0305
      4 C         141.2954  142.5667  164.5977 C.ar    1  UNL1        0.1474
      5 O         141.4508  142.0151  165.9840 O.2     1  UNL1       -0.4400
      6 C         140.6042  142.5471  167.1021 C.ar    1  UNL1        0.2024
      7 C         139.6022  143.6307  166.8339 C.ar    1  UNL1        0.0955
      8 C         139.4468  144.1823  165.4477 C.ar    1  UNL1        0.2030
      9 O         138.4449  145.2659  165.1796 O.2     1  UNL1       -0.2863
     10 C         140.2935  143.6502  164.3296 C.ar    1  UNL1        0.0735
     11 C         140.1381  144.2018  162.9434 C.ar    1  UNL1        0.0107
     12 O         141.5623  145.4683  160.0415 O.2     1  UNL1       -0.2699
     13 C         140.8294  144.2213  160.4390 C.2     1  UNL1        0.2492
     14 N         139.9411  143.5260  159.4503 N.am    1  UNL1       -0.2709
     15 C         139.2082  142.2791  159.8479 C.3     1  UNL1        0.1258
     16 C         138.3199  141.5838  158.8591 C.3     1  UNL1        0.1637
     17 O         138.1646  142.1354  157.4729 O.3     1  UNL1       -0.3501
     18 C         138.8975  143.3823  157.0754 C.3     1  UNL1        0.1637
     19 C         139.7858  144.0776  158.0641 C.3     1  UNL1        0.1258
     20 N         140.7595  141.9956  168.4883 N.pl3   1  UNL1       -0.2742
     21 C         141.6831  142.6647  169.4626 C.3     1  UNL1        0.1257
     22 C         141.8385  142.1132  170.8488 C.3     1  UNL1        0.1637
     23 O         141.0702  140.8925  171.2608 O.3     1  UNL1       -0.3501
     24 C         140.1466  140.2234  170.2866 C.3     1  UNL1        0.1637
     25 C         139.9912  140.7749  168.9003 C.3     1  UNL1        0.1257
     26 C         143.1440  140.9510  163.7478 C.3     1  UNL1        0.0983
     27 C         144.6068  141.1490  164.0141 C.3     1  UNL1        0.0261
     28 C         145.2259  139.7995  164.2276 C.3     1  UNL1        0.0235
     29 C         144.1457  138.7674  164.0932 C.3     1  UNL1        0.0911
     30 N         142.8590  139.4791  163.7967 N.pl3   1  UNL1       -0.3051
     31 C         141.5221  138.8324  163.5860 C.ar    1  UNL1        0.0525
     32 C         140.9949  138.6356  162.1956 C.ar    1  UNL1        0.0443
     33 C         139.6579  137.9890  161.9848 C.ar    1  UNL1        0.1436
     34 F         139.1308  137.7921  160.5945 F       1  UNL1       -0.2041
     35 C         138.8481  137.5391  163.1647 C.ar    1  UNL1        0.0593
     36 C         139.3754  137.7359  164.5551 C.ar    1  UNL1        0.1436
     37 F         138.5656  137.2861  165.7350 F       1  UNL1       -0.2041
     38 C         140.7123  138.3826  164.7658 C.ar    1  UNL1        0.0443
@<TRIPOS>BOND
     1    12    13    2
     2    13     1    1
     3     1     2   ar
     4     2     3   ar
     5    26     3    1
     6    26    27    1
     7    27    28    1
     8    28    29    1
     9    29    30    1
    10    30    31    1
    11    31    32   ar
    12    32    33   ar
    13    33    34    1
    14    33    35   ar
    15    35    36   ar
    16    36    37    1
    17    36    38   ar
    18     3     4   ar
    19     4     5   ar
    20     5     6   ar
    21     6    20    1
    22    20    21    1
    23    21    22    1
    24    22    23    1
    25    23    24    1
    26    24    25    1
    27     6     7   ar
    28     7     8   ar
    29     8     9    2
    30     8    10   ar
    31    10    11   ar
    32    13    14   am
    33    14    15    1
    34    15    16    1
    35    16    17    1
    36    17    18    1
    37    18    19    1
    38    11     1   ar
    39    19    14    1
    40    30    26    1
    41    38    31   ar
    42    10     4   ar
    43    25    20    1
@<TRIPOS>MOLECULE
*****
 38 43 0 0 0
SMALL
GASTEIGER

@<TRIPOS>ATOM
      1 C         142.7882  141.9875  160.7858 C.ar    1  UNL1        0.0536
      2 C         141.3940  142.4244  161.1252 C.ar    1  UNL1        0.0049
      3 C         140.9920  142.6020  162.5594 C.ar    1  UNL1        0.0305
      4 C         141.9842  142.3427  163.6540 C.ar    1  UNL1        0.1474
      5 O         141.5821  142.5203  165.0882 O.2     1  UNL1       -0.4400
      6 C         142.5743  142.2610  166.1829 C.ar    1  UNL1        0.2024
      7 C         143.9686  141.8240  165.8434 C.ar    1  UNL1        0.0955
      8 C         144.3706  141.6464  164.4092 C.ar    1  UNL1        0.2030
      9 O         145.7647  141.2094  164.0698 O.2     1  UNL1       -0.2863
     10 C         143.3784  141.9057  163.3146 C.ar    1  UNL1        0.0735
     11 C         143.7804  141.7281  161.8804 C.ar    1  UNL1        0.0107
     12 O         143.6194  142.9965  158.5405 O.2     1  UNL1       -0.2699
     13 C         143.1903  141.8099  159.3515 C.2     1  UNL1        0.2492
     14 N         143.1632  140.4457  158.7285 N.am    1  UNL1       -0.2709
     15 C         142.7341  139.2591  159.5396 C.3     1  UNL1        0.1258
     16 C         142.7071  137.8949  158.9164 C.3     1  UNL1        0.1637
     17 O         143.1091  137.7173  157.4823 O.3     1  UNL1       -0.3501
     18 C         143.5382  138.9039  156.6712 C.3     1  UNL1        0.1637
     19 C         143.5653  140.2681  157.2943 C.3     1  UNL1        0.1258
     20 N         142.1723  142.4386  167.6171 N.pl3   1  UNL1       -0.2742
     21 C         143.2070  142.3654  168.7006 C.3     1  UNL1        0.1257
     22 C         142.8050  142.5430  170.1348 C.3     1  UNL1        0.1637
     23 O         141.3683  142.7938  170.4854 O.3     1  UNL1       -0.3501
     24 C         140.3336  142.8670  169.4020 C.3     1  UNL1        0.1637
     25 C         140.7356  142.6894  167.9677 C.3     1  UNL1        0.1257
     26 C         139.5978  143.0390  162.8989 C.3     1  UNL1        0.0983
     27 C         139.0212  144.4046  162.6692 C.3     1  UNL1        0.0261
     28 C         137.6025  144.3966  163.1561 C.3     1  UNL1        0.0235
     29 C         137.3021  143.0261  163.6867 C.3     1  UNL1        0.0911
     30 N         138.5353  142.1871  163.5278 N.pl3   1  UNL1       -0.3051
     31 C         138.6806  140.7487  163.9275 C.ar    1  UNL1        0.0525
     32 C         138.3229  140.3171  165.3188 C.ar    1  UNL1        0.0443
     33 C         138.4681  138.8787  165.7187 C.ar    1  UNL1        0.1436
     34 F         138.1105  138.4472  167.1100 F       1  UNL1       -0.2041
     35 C         138.9710  137.8717  164.7270 C.ar    1  UNL1        0.0593
     36 C         139.3286  138.3033  163.3357 C.ar    1  UNL1        0.1436
     37 F         139.8315  137.2964  162.3441 F       1  UNL1       -0.2041
     38 C         139.1834  139.7417  162.9359 C.ar    1  UNL1        0.0443
@<TRIPOS>BOND
     1    12    13    2
     2    13     1    1
     3     1     2   ar
     4     2     3   ar
     5    26     3    1
     6    26    27    1
     7    27    28    1
     8    28    29    1
     9    29    30    1
    10    30    31    1
    11    31    32   ar
    12    32    33   ar
    13    33    34    1
    14    33    35   ar
    15    35    36   ar
    16    36    37    1
    17    36    38   ar
    18     3     4   ar
    19     4     5   ar
    20     5     6   ar
    21     6    20    1
    22    20    21    1
    23    21    22    1
    24    22    23    1
    25    23    24    1
    26    24    25    1
    27     6     7   ar
    28     7     8   ar
    29     8     9    2
    30     8    10   ar
    31    10    11   ar
    32    13    14   am
    33    14    15    1
    34    15    16    1
    35    16    17    1
    36    17    18    1
    37    18    19    1
    38    11     1   ar
    39    19    14    1
    40    30    26    1
    41    38    31   ar
    42    10     4   ar
    43    25    20    1
@<TRIPOS>MOLECULE
*****
 38 43 0 0 0
SMALL
GASTEIGER

@<TRIPOS>ATOM
      1 C         142.1564  139.5277  161.1543 C.ar    1  UNL1        0.0536
      2 C         142.4985  140.9715  161.3739 C.ar    1  UNL1        0.0049
      3 C         142.5351  141.5303  162.7654 C.ar    1  UNL1        0.0305
      4 C         142.2296  140.6453  163.9373 C.ar    1  UNL1        0.1474
      5 O         142.2661  141.2041  165.3289 O.2     1  UNL1       -0.4400
      6 C         141.9606  140.3191  166.5008 C.ar    1  UNL1        0.2024
      7 C         141.6185  138.8752  166.2811 C.ar    1  UNL1        0.0955
      8 C         141.5819  138.3164  164.8896 C.ar    1  UNL1        0.2030
      9 O         141.2399  136.8726  164.6700 O.2     1  UNL1       -0.2863
     10 C         141.8875  139.2014  163.7177 C.ar    1  UNL1        0.0735
     11 C         141.8509  138.6426  162.3262 C.ar    1  UNL1        0.0107
     12 O         143.2958  138.2049  159.2302 O.2     1  UNL1       -0.2699
     13 C         142.1198  138.9688  159.7627 C.2     1  UNL1        0.2492
     14 N         140.9074  139.1739  158.9038 N.am    1  UNL1       -0.2709
     15 C         139.7314  139.9378  159.4363 C.3     1  UNL1        0.1258
     16 C         138.5189  140.1428  158.5773 C.3     1  UNL1        0.1637
     17 O         138.4824  139.5840  157.1858 O.3     1  UNL1       -0.3501
     18 C         139.6583  138.8200  156.6533 C.3     1  UNL1        0.1637
     19 C         140.8708  138.6150  157.5122 C.3     1  UNL1        0.1258
     20 N         141.9972  140.8779  167.8923 N.pl3   1  UNL1       -0.2742
     21 C         141.1290  140.2843  168.9620 C.3     1  UNL1        0.1257
     22 C         141.1656  140.8431  170.3535 C.3     1  UNL1        0.1637
     23 O         142.0703  141.9955  170.6754 O.3     1  UNL1       -0.3501
     24 C         142.9384  142.5890  169.6059 C.3     1  UNL1        0.1637
     25 C         142.9019  142.0302  168.2143 C.3     1  UNL1        0.1257
     26 C         142.8772  142.9742  162.9851 C.3     1  UNL1        0.0983
     27 C         144.2433  143.5835  162.8734 C.3     1  UNL1        0.0261
     28 C         144.1236  145.0481  163.1743 C.3     1  UNL1        0.0235
     29 C         142.6835  145.3440  163.4720 C.3     1  UNL1        0.0911
     30 N         141.9132  144.0623  163.3551 N.pl3   1  UNL1       -0.3051
     31 C         140.4379  143.8975  163.5703 C.ar    1  UNL1        0.0525
     32 C         139.7575  144.6260  164.6912 C.ar    1  UNL1        0.0443
     33 C         138.2822  144.4613  164.9066 C.ar    1  UNL1        0.1436
     34 F         137.6019  145.1898  166.0274 F       1  UNL1       -0.2041
     35 C         137.4872  143.5680  164.0009 C.ar    1  UNL1        0.0593
     36 C         138.1676  142.8395  162.8800 C.ar    1  UNL1        0.1436
     37 F         137.3727  141.9462  161.9744 F       1  UNL1       -0.2041
     38 C         139.6429  143.0043  162.6648 C.ar    1  UNL1        0.0443
@<TRIPOS>BOND
     1    12    13    2
     2    13     1    1
     3     1     2   ar
     4     2     3   ar
     5    26     3    1
     6    26    27    1
     7    27    28    1
     8    28    29    1
     9    29    30    1
    10    30    31    1
    11    31    32   ar
    12    32    33   ar
    13    33    34    1
    14    33    35   ar
    15    35    36   ar
    16    36    37    1
    17    36    38   ar
    18     3     4   ar
    19     4     5   ar
    20     5     6   ar
    21     6    20    1
    22    20    21    1
    23    21    22    1
    24    22    23    1
    25    23    24    1
    26    24    25    1
    27     6     7   ar
    28     7     8   ar
    29     8     9    2
    30     8    10   ar
    31    10    11   ar
    32    13    14   am
    33    14    15    1
    34    15    16    1
    35    16    17    1
    36    17    18    1
    37    18    19    1
    38    11     1   ar
    39    19    14    1
    40    30    26    1
    41    38    31   ar
    42    10     4   ar
    43    25    20    1
