@<TRIPOS>MOLECULE
*****
 35 38 0 0 0
SMALL
GASTEIGER

@<TRIPOS>ATOM
      1 C         139.1100  141.7210  163.5563 C.ar    1  UNL1        0.0154
      2 C         137.8138  142.2898  163.0602 C.ar    1  UNL1        0.0985
      3 N         137.7072  142.7966  161.6524 N.ar    1  UNL1       -0.2423
      4 C         138.8968  142.7347  160.7408 C.ar    1  UNL1        0.0985
      5 C         140.1930  142.1658  161.2370 C.ar    1  UNL1        0.0152
      6 C         140.2996  141.6590  162.6448 C.ar    1  UNL1       -0.0188
      7 C         141.5959  141.0901  163.1410 C.3     1  UNL1        0.0311
      8 C         140.2108  141.4092  167.3565 C.ar    1  UNL1        0.1754
      9 C         140.1042  141.9160  165.9488 C.ar    1  UNL1        0.0403
     10 C         139.2166  141.2141  164.9641 C.ar    1  UNL1        0.0074
     11 C         138.4357  140.0054  165.3872 C.ar    1  UNL1        0.0403
     12 C         138.5423  139.4986  166.7950 C.ar    1  UNL1        0.1754
     13 C         139.4299  140.2005  167.7796 C.ar    1  UNL1        0.2061
     14 C         140.5366  143.1856  169.2242 C.3     1  UNL1        0.2526
     15 O         141.0984  142.1112  168.3411 O.3     1  UNL1       -0.4683
     16 O         137.7613  138.2898  167.2181 O.3     1  UNL1       -0.4683
     17 C         137.8568  137.0199  166.4256 C.3     1  UNL1        0.2526
     18 O         139.5364  139.6937  169.1874 O.3     1  UNL1       -0.4654
     19 C         138.5916  140.1956  170.2387 C.3     1  UNL1        0.2528
     20 C         141.3826  142.1038  160.3254 C.ar    1  UNL1        0.0013
     21 C         142.1178  143.3607  159.9654 C.ar    1  UNL1        0.0013
     22 C         143.3075  143.2987  159.0538 C.ar    1  UNL1        0.0145
     23 C         143.7619  141.9798  158.5023 C.ar    1  UNL1        0.0479
     24 C         143.0266  140.7229  158.8625 C.ar    1  UNL1        0.0145
     25 C         141.8370  140.7849  159.7740 C.ar    1  UNL1        0.0013
     26 N         144.9515  141.9178  157.5908 N.pl3   1  UNL1       -0.3045
     27 C         144.9473  140.9870  156.4146 C.3     1  UNL1        0.1099
     28 C         146.1370  140.9249  155.5030 C.3     1  UNL1        0.1168
     29 N         147.3308  141.7938  155.7676 N.3     1  UNL1       -0.1559
     30 C         147.3349  142.7246  156.9439 C.3     1  UNL1        0.1168
     31 C         146.1453  142.7866  157.8554 C.3     1  UNL1        0.1099
     32 S         148.5204  141.7317  154.8561 S.O2    1  UNL1        0.0458
     33 C         149.7101  141.6697  153.9445 C.3     1  UNL1        0.1960
     34 O         147.6081  141.7337  153.6654 O.2     1  UNL1       -0.1572
     35 O         149.4326  141.7297  156.0468 O.2     1  UNL1       -0.1572
@<TRIPOS>BOND
     1    14    15    1
     2    15     8    1
     3     8     9   ar
     4     9    10   ar
     5    10     1    1
     6     1     2   ar
     7     2     3   ar
     8     3     4   ar
     9     4     5   ar
    10     5    20    1
    11    20    21   ar
    12    21    22   ar
    13    22    23   ar
    14    23    26    1
    15    26    27    1
    16    27    28    1
    17    28    29    1
    18    29    32    1
    19    32    33    1
    20    32    34    2
    21    32    35    2
    22    29    30    1
    23    30    31    1
    24    23    24   ar
    25    24    25   ar
    26     5     6   ar
    27     6     7    1
    28    10    11   ar
    29    11    12   ar
    30    12    16    1
    31    16    17    1
    32    12    13   ar
    33    13    18    1
    34    18    19    1
    35    13     8   ar
    36     6     1   ar
    37    25    20   ar
    38    31    26    1
@<TRIPOS>MOLECULE
*****
 35 38 0 0 0
SMALL
GASTEIGER

@<TRIPOS>ATOM
      1 C         139.2225  141.9362  163.7900 C.ar    1  UNL1        0.0154
      2 C         137.8955  142.4335  163.2986 C.ar    1  UNL1        0.0985
      3 N         137.7343  142.8510  161.8669 N.ar    1  UNL1       -0.2423
      4 C         138.9003  142.7711  160.9266 C.ar    1  UNL1        0.0985
      5 C         140.2274  142.2738  161.4180 C.ar    1  UNL1        0.0152
      6 C         140.3885  141.8563  162.8498 C.ar    1  UNL1       -0.0188
      7 C         141.7156  141.3590  163.3412 C.3     1  UNL1        0.0311
      8 C         138.9067  139.8345  167.1416 C.ar    1  UNL1        0.1754
      9 C         138.7457  140.2519  165.7099 C.ar    1  UNL1        0.0403
     10 C         139.3836  141.5187  165.2218 C.ar    1  UNL1        0.0074
     11 C         140.1826  142.3680  166.1653 C.ar    1  UNL1        0.0403
     12 C         140.3436  141.9506  167.5970 C.ar    1  UNL1        0.1754
     13 C         139.7057  140.6838  168.0851 C.ar    1  UNL1        0.2061
     14 C         137.6177  137.6318  166.6550 C.3     1  UNL1        0.2526
     15 O         138.2688  138.5677  167.6298 O.3     1  UNL1       -0.4683
     16 O         141.1426  142.7999  168.5406 O.3     1  UNL1       -0.4683
     17 C         140.4432  143.6583  169.5524 C.3     1  UNL1        0.2526
     18 O         139.8668  140.2663  169.5169 O.3     1  UNL1       -0.4654
     19 C         141.1767  139.7126  169.9938 C.3     1  UNL1        0.2528
     20 C         141.3934  142.1939  160.4778 C.ar    1  UNL1        0.0013
     21 C         142.3625  143.3351  160.3862 C.ar    1  UNL1        0.0013
     22 C         143.5286  143.2552  159.4460 C.ar    1  UNL1        0.0145
     23 C         143.7254  142.0341  158.5973 C.ar    1  UNL1        0.0479
     24 C         142.7562  140.8929  158.6889 C.ar    1  UNL1        0.0145
     25 C         141.5902  140.9728  159.6291 C.ar    1  UNL1        0.0013
     26 N         144.8914  141.9543  157.6571 N.pl3   1  UNL1       -0.3045
     27 C         144.8515  141.0112  156.4913 C.3     1  UNL1        0.1099
     28 C         146.0175  140.9312  155.5510 C.3     1  UNL1        0.1168
     29 N         147.2234  141.7944  155.7765 N.3     1  UNL1       -0.1559
     30 C         147.2632  142.7376  156.9423 C.3     1  UNL1        0.1168
     31 C         146.0972  142.8175  157.8825 C.3     1  UNL1        0.1099
     32 S         148.3893  141.7146  154.8363 S.O2    1  UNL1        0.0458
     33 C         149.5553  141.6347  153.8960 C.3     1  UNL1        0.1960
     34 O         149.3319  141.7428  156.0028 O.2     1  UNL1       -0.1572
     35 O         147.4468  141.6863  153.6698 O.2     1  UNL1       -0.1572
@<TRIPOS>BOND
     1    14    15    1
     2    15     8    1
     3     8     9   ar
     4     9    10   ar
     5    10     1    1
     6     1     2   ar
     7     2     3   ar
     8     3     4   ar
     9     4     5   ar
    10     5    20    1
    11    20    21   ar
    12    21    22   ar
    13    22    23   ar
    14    23    26    1
    15    26    27    1
    16    27    28    1
    17    28    29    1
    18    29    32    1
    19    32    33    1
    20    32    34    2
    21    32    35    2
    22    29    30    1
    23    30    31    1
    24    23    24   ar
    25    24    25   ar
    26     5     6   ar
    27     6     7    1
    28    10    11   ar
    29    11    12   ar
    30    12    16    1
    31    16    17    1
    32    12    13   ar
    33    13    18    1
    34    18    19    1
    35    13     8   ar
    36     6     1   ar
    37    25    20   ar
    38    31    26    1
@<TRIPOS>MOLECULE
*****
 35 38 0 0 0
SMALL
GASTEIGER

@<TRIPOS>ATOM
      1 C         141.2713  141.5599  164.4389 C.ar    1  UNL1        0.0154
      2 C         141.3764  143.0354  164.1901 C.ar    1  UNL1        0.0985
      3 N         141.5236  143.5511  162.7893 N.ar    1  UNL1       -0.2423
      4 C         141.5657  142.5914  161.6373 C.ar    1  UNL1        0.0985
      5 C         141.4605  141.1159  161.8861 C.ar    1  UNL1        0.0152
      6 C         141.3133  140.6002  163.2869 C.ar    1  UNL1       -0.0188
      7 C         141.2081  139.1247  163.5357 C.3     1  UNL1        0.0311
      8 C         139.6874  139.8976  167.6759 C.ar    1  UNL1        0.1754
      9 C         139.8347  140.4133  166.2751 C.ar    1  UNL1        0.0403
     10 C         141.1241  141.0441  165.8398 C.ar    1  UNL1        0.0074
     11 C         142.2662  141.1593  166.8053 C.ar    1  UNL1        0.0403
     12 C         142.1190  140.6435  168.2061 C.ar    1  UNL1        0.1754
     13 C         140.8296  140.0127  168.6414 C.ar    1  UNL1        0.2061
     14 C         137.5715  138.4935  167.1269 C.3     1  UNL1        0.2526
     15 O         138.3980  139.2667  168.1113 O.3     1  UNL1       -0.4683
     16 O         143.2612  140.7586  169.1717 O.3     1  UNL1       -0.4683
     17 C         143.5982  142.0877  169.7797 C.3     1  UNL1        0.2526
     18 O         140.6824  139.4969  170.0423 O.3     1  UNL1       -0.4654
     19 C         140.4506  140.4544  171.1735 C.3     1  UNL1        0.2528
     20 C         141.5025  140.1562  160.7341 C.ar    1  UNL1        0.0013
     21 C         140.2324  139.7590  160.0421 C.ar    1  UNL1        0.0013
     22 C         140.2743  138.7992  158.8901 C.ar    1  UNL1        0.0145
     23 C         141.5866  138.2367  158.4300 C.ar    1  UNL1        0.0479
     24 C         142.8568  138.6340  159.1220 C.ar    1  UNL1        0.0145
     25 C         142.8148  139.5937  160.2740 C.ar    1  UNL1        0.0013
     26 N         141.6286  137.2770  157.2780 N.pl3   1  UNL1       -0.3045
     27 C         142.8350  136.4110  157.0670 C.3     1  UNL1        0.1099
     28 C         142.8771  135.4512  155.9150 C.3     1  UNL1        0.1168
     29 N         141.7127  135.3575  154.9740 N.3     1  UNL1       -0.1559
     30 C         140.5063  136.2236  155.1850 C.3     1  UNL1        0.1168
     31 C         140.4643  137.1833  156.3370 C.3     1  UNL1        0.1099
     32 S         141.7548  134.3978  153.8220 S.O2    1  UNL1        0.0458
     33 C         141.7968  133.4380  152.6700 C.3     1  UNL1        0.1960
     34 O         142.0184  135.5370  152.8825 O.2     1  UNL1       -0.1572
     35 O         141.4912  133.2586  154.7614 O.2     1  UNL1       -0.1572
@<TRIPOS>BOND
     1    14    15    1
     2    15     8    1
     3     8     9   ar
     4     9    10   ar
     5    10     1    1
     6     1     2   ar
     7     2     3   ar
     8     3     4   ar
     9     4     5   ar
    10     5    20    1
    11    20    21   ar
    12    21    22   ar
    13    22    23   ar
    14    23    26    1
    15    26    27    1
    16    27    28    1
    17    28    29    1
    18    29    32    1
    19    32    33    1
    20    32    34    2
    21    32    35    2
    22    29    30    1
    23    30    31    1
    24    23    24   ar
    25    24    25   ar
    26     5     6   ar
    27     6     7    1
    28    10    11   ar
    29    11    12   ar
    30    12    16    1
    31    16    17    1
    32    12    13   ar
    33    13    18    1
    34    18    19    1
    35    13     8   ar
    36     6     1   ar
    37    25    20   ar
    38    31    26    1
@<TRIPOS>MOLECULE
*****
 35 38 0 0 0
SMALL
GASTEIGER

@<TRIPOS>ATOM
      1 C         141.2574  141.5432  164.3841 C.ar    1  UNL1        0.0154
      2 C         141.3530  143.0193  164.1353 C.ar    1  UNL1        0.0985
      3 N         141.4961  143.5361  162.7345 N.ar    1  UNL1       -0.2423
      4 C         141.5436  142.5768  161.5823 C.ar    1  UNL1        0.0985
      5 C         141.4480  141.1006  161.8310 C.ar    1  UNL1        0.0152
      6 C         141.3049  140.5838  163.2320 C.ar    1  UNL1       -0.0188
      7 C         141.2093  139.1077  163.4807 C.3     1  UNL1        0.0311
      8 C         142.1158  140.6254  168.1485 C.ar    1  UNL1        0.1754
      9 C         142.2588  141.1422  166.7476 C.ar    1  UNL1        0.0403
     10 C         141.1143  141.0264  165.7850 C.ar    1  UNL1        0.0074
     11 C         139.8267  140.3939  166.2232 C.ar    1  UNL1        0.0403
     12 C         139.6837  139.8772  167.6241 C.ar    1  UNL1        0.1754
     13 C         140.8282  139.9929  168.5867 C.ar    1  UNL1        0.2061
     14 C         143.5878  142.0673  169.7310 C.3     1  UNL1        0.2526
     15 O         143.2603  140.7412  169.1111 O.3     1  UNL1       -0.4683
     16 O         138.3961  139.2446  168.0624 O.3     1  UNL1       -0.4683
     17 C         137.5793  138.4519  167.0855 C.3     1  UNL1        0.2526
     18 O         140.6851  139.4761  169.9877 O.3     1  UNL1       -0.4654
     19 C         140.4227  140.4295  171.1156 C.3     1  UNL1        0.2528
     20 C         141.4954  140.1413  160.6789 C.ar    1  UNL1        0.0013
     21 C         142.8125  139.6000  160.2076 C.ar    1  UNL1        0.0013
     22 C         142.8601  138.6406  159.0554 C.ar    1  UNL1        0.0145
     23 C         141.5905  138.2225  158.3747 C.ar    1  UNL1        0.0479
     24 C         140.2733  138.7639  158.8462 C.ar    1  UNL1        0.0145
     25 C         140.2259  139.7232  159.9982 C.ar    1  UNL1        0.0013
     26 N         141.6380  137.2632  157.2226 N.pl3   1  UNL1       -0.3045
     27 C         142.8425  136.3923  157.0211 C.3     1  UNL1        0.1099
     28 C         142.8900  135.4329  155.8689 C.3     1  UNL1        0.1168
     29 N         141.7330  135.3444  154.9184 N.3     1  UNL1       -0.1559
     30 C         140.5285  136.2154  155.1200 C.3     1  UNL1        0.1168
     31 C         140.4810  137.1748  156.2721 C.3     1  UNL1        0.1099
     32 S         141.7805  134.3851  153.7663 S.O2    1  UNL1        0.0458
     33 C         141.8280  133.4257  152.6141 C.3     1  UNL1        0.1960
     34 O         141.5802  133.2387  154.7126 O.2     1  UNL1       -0.1572
     35 O         141.9808  135.5315  152.8199 O.2     1  UNL1       -0.1572
@<TRIPOS>BOND
     1    14    15    1
     2    15     8    1
     3     8     9   ar
     4     9    10   ar
     5    10     1    1
     6     1     2   ar
     7     2     3   ar
     8     3     4   ar
     9     4     5   ar
    10     5    20    1
    11    20    21   ar
    12    21    22   ar
    13    22    23   ar
    14    23    26    1
    15    26    27    1
    16    27    28    1
    17    28    29    1
    18    29    32    1
    19    32    33    1
    20    32    34    2
    21    32    35    2
    22    29    30    1
    23    30    31    1
    24    23    24   ar
    25    24    25   ar
    26     5     6   ar
    27     6     7    1
    28    10    11   ar
    29    11    12   ar
    30    12    16    1
    31    16    17    1
    32    12    13   ar
    33    13    18    1
    34    18    19    1
    35    13     8   ar
    36     6     1   ar
    37    25    20   ar
    38    31    26    1
@<TRIPOS>MOLECULE
*****
 35 38 0 0 0
SMALL
GASTEIGER

@<TRIPOS>ATOM
      1 C         139.4850  139.1741  165.5821 C.ar    1  UNL1        0.0154
      2 C         139.1102  137.7544  165.2754 C.ar    1  UNL1        0.0985
      3 N         138.8265  137.3423  163.8613 N.ar    1  UNL1       -0.2423
      4 C         138.9175  138.3500  162.7538 C.ar    1  UNL1        0.0985
      5 C         139.2923  139.7697  163.0605 C.ar    1  UNL1        0.0152
      6 C         139.5761  140.1817  164.4747 C.ar    1  UNL1       -0.0188
      7 C         139.9509  141.6014  164.7814 C.3     1  UNL1        0.0311
      8 C         141.4599  140.2931  168.8375 C.ar    1  UNL1        0.1754
      9 C         141.1761  139.8811  167.4234 C.ar    1  UNL1        0.0403
     10 C         139.7688  139.5861  166.9962 C.ar    1  UNL1        0.0074
     11 C         138.6453  139.7031  167.9831 C.ar    1  UNL1        0.0403
     12 C         138.9291  140.1151  169.3972 C.ar    1  UNL1        0.1754
     13 C         140.3364  140.4101  169.8244 C.ar    1  UNL1        0.2061
     14 C         143.3977  141.9888  169.1831 C.3     1  UNL1        0.2526
     15 O         142.8672  140.5882  169.2647 O.3     1  UNL1       -0.4683
     16 O         137.8056  140.2321  170.3842 O.3     1  UNL1       -0.4683
     17 C         137.0194  139.0153  170.7733 C.3     1  UNL1        0.2526
     18 O         140.6202  140.8221  171.2386 O.3     1  UNL1       -0.4654
     19 C         140.7604  142.2754  171.5825 C.3     1  UNL1        0.2528
     20 C         139.3834  140.7773  161.9531 C.ar    1  UNL1        0.0013
     21 C         140.6759  140.9667  161.2159 C.ar    1  UNL1        0.0013
     22 C         140.7670  141.9743  160.1085 C.ar    1  UNL1        0.0145
     23 C         139.5656  142.7926  159.7383 C.ar    1  UNL1        0.0479
     24 C         138.2730  142.6031  160.4755 C.ar    1  UNL1        0.0145
     25 C         138.1820  141.5955  161.5829 C.ar    1  UNL1        0.0013
     26 N         139.6566  143.8002  158.6309 N.pl3   1  UNL1       -0.3045
     27 C         139.1266  143.4666  157.2679 C.3     1  UNL1        0.1099
     28 C         139.2176  144.4742  156.1604 C.3     1  UNL1        0.1168
     29 N         139.8387  145.8154  156.4160 N.3     1  UNL1       -0.1559
     30 C         140.3688  146.1490  157.7790 C.3     1  UNL1        0.1168
     31 C         140.2778  145.1414  158.8864 C.3     1  UNL1        0.1099
     32 S         139.9298  146.8231  155.3086 S.O2    1  UNL1        0.0458
     33 C         140.0209  147.8307  154.2011 C.3     1  UNL1        0.1960
     34 O         138.8949  147.6672  155.9916 O.2     1  UNL1       -0.1572
     35 O         140.9647  145.9790  154.6257 O.2     1  UNL1       -0.1572
@<TRIPOS>BOND
     1    14    15    1
     2    15     8    1
     3     8     9   ar
     4     9    10   ar
     5    10     1    1
     6     1     2   ar
     7     2     3   ar
     8     3     4   ar
     9     4     5   ar
    10     5    20    1
    11    20    21   ar
    12    21    22   ar
    13    22    23   ar
    14    23    26    1
    15    26    27    1
    16    27    28    1
    17    28    29    1
    18    29    32    1
    19    32    33    1
    20    32    34    2
    21    32    35    2
    22    29    30    1
    23    30    31    1
    24    23    24   ar
    25    24    25   ar
    26     5     6   ar
    27     6     7    1
    28    10    11   ar
    29    11    12   ar
    30    12    16    1
    31    16    17    1
    32    12    13   ar
    33    13    18    1
    34    18    19    1
    35    13     8   ar
    36     6     1   ar
    37    25    20   ar
    38    31    26    1
@<TRIPOS>MOLECULE
*****
 35 38 0 0 0
SMALL
GASTEIGER

@<TRIPOS>ATOM
      1 C         141.8301  139.9653  164.3044 C.ar    1  UNL1        0.0154
      2 C         142.5701  138.6918  164.0208 C.ar    1  UNL1        0.0985
      3 N         143.0658  138.4052  162.6344 N.ar    1  UNL1       -0.2423
      4 C         142.8215  139.3922  161.5315 C.ar    1  UNL1        0.0985
      5 C         142.0815  140.6657  161.8151 C.ar    1  UNL1        0.0152
      6 C         141.5858  140.9523  163.2016 C.ar    1  UNL1       -0.0188
      7 C         140.8457  142.2258  163.4852 C.3     1  UNL1        0.0311
      8 C         141.5809  141.5023  167.9548 C.ar    1  UNL1        0.1754
      9 C         142.0766  141.2157  166.5684 C.ar    1  UNL1        0.0403
     10 C         141.3344  140.2519  165.6909 C.ar    1  UNL1        0.0074
     11 C         140.0965  139.5746  166.1997 C.ar    1  UNL1        0.0403
     12 C         139.6009  139.8612  167.5861 C.ar    1  UNL1        0.1754
     13 C         140.3431  140.8250  168.4637 C.ar    1  UNL1        0.2061
     14 C         143.4969  141.9952  169.6388 C.3     1  UNL1        0.2526
     15 O         142.3232  142.4661  168.8324 O.3     1  UNL1       -0.4683
     16 O         138.3629  139.1839  168.0950 O.3     1  UNL1       -0.4683
     17 C         137.5060  138.3852  167.1582 C.3     1  UNL1        0.2526
     18 O         139.8474  141.1116  169.8501 O.3     1  UNL1       -0.4654
     19 C         140.3895  140.3380  171.0153 C.3     1  UNL1        0.2528
     20 C         141.8371  141.6527  160.7124 C.ar    1  UNL1        0.0013
     21 C         140.5720  141.5823  159.9096 C.ar    1  UNL1        0.0013
     22 C         140.3276  142.5693  158.8068 C.ar    1  UNL1        0.0145
     23 C         141.3484  143.6266  158.5067 C.ar    1  UNL1        0.0479
     24 C         142.6136  143.6970  159.3096 C.ar    1  UNL1        0.0145
     25 C         142.8579  142.7100  160.4123 C.ar    1  UNL1        0.0013
     26 N         141.1041  144.6135  157.4039 N.pl3   1  UNL1       -0.3045
     27 C         141.8555  144.4949  156.1112 C.3     1  UNL1        0.1099
     28 C         141.6112  145.4819  155.0083 C.3     1  UNL1        0.1168
     29 N         140.6154  146.5875  155.1983 N.3     1  UNL1       -0.1559
     30 C         139.8640  146.7061  156.4911 C.3     1  UNL1        0.1168
     31 C         140.1083  145.7192  157.5939 C.3     1  UNL1        0.1099
     32 S         140.3711  147.5744  154.0955 S.O2    1  UNL1        0.0458
     33 C         140.1267  148.5615  152.9927 C.3     1  UNL1        0.1960
     34 O         141.2813  146.7933  153.1948 O.2     1  UNL1       -0.1572
     35 O         139.4609  148.3556  154.9962 O.2     1  UNL1       -0.1572
@<TRIPOS>BOND
     1    14    15    1
     2    15     8    1
     3     8     9   ar
     4     9    10   ar
     5    10     1    1
     6     1     2   ar
     7     2     3   ar
     8     3     4   ar
     9     4     5   ar
    10     5    20    1
    11    20    21   ar
    12    21    22   ar
    13    22    23   ar
    14    23    26    1
    15    26    27    1
    16    27    28    1
    17    28    29    1
    18    29    32    1
    19    32    33    1
    20    32    34    2
    21    32    35    2
    22    29    30    1
    23    30    31    1
    24    23    24   ar
    25    24    25   ar
    26     5     6   ar
    27     6     7    1
    28    10    11   ar
    29    11    12   ar
    30    12    16    1
    31    16    17    1
    32    12    13   ar
    33    13    18    1
    34    18    19    1
    35    13     8   ar
    36     6     1   ar
    37    25    20   ar
    38    31    26    1
@<TRIPOS>MOLECULE
*****
 35 38 0 0 0
SMALL
GASTEIGER

@<TRIPOS>ATOM
      1 C         140.3388  142.9729  164.9625 C.ar    1  UNL1        0.0154
      2 C         139.5129  144.2234  165.0274 C.ar    1  UNL1        0.0985
      3 N         139.3852  145.1015  163.8180 N.ar    1  UNL1       -0.2423
      4 C         140.0834  144.7290  162.5436 C.ar    1  UNL1        0.0985
      5 C         140.9093  143.4785  162.4788 C.ar    1  UNL1        0.0152
      6 C         141.0370  142.6005  163.6883 C.ar    1  UNL1       -0.0188
      7 C         141.8629  141.3500  163.6234 C.3     1  UNL1        0.0311
      8 C         139.5835  140.1379  167.6350 C.ar    1  UNL1        0.1754
      9 C         139.4558  141.0159  166.4256 C.ar    1  UNL1        0.0403
     10 C         140.4665  142.0949  166.1720 C.ar    1  UNL1        0.0074
     11 C         141.6048  142.2959  167.1279 C.ar    1  UNL1        0.0403
     12 C         141.7325  141.4179  168.3374 C.ar    1  UNL1        0.1754
     13 C         140.7218  140.3389  168.5909 C.ar    1  UNL1        0.2061
     14 C         137.7720  138.4990  166.7505 C.3     1  UNL1        0.2526
     15 O         138.5728  139.0589  167.8885 O.3     1  UNL1       -0.4683
     16 O         142.8709  141.6189  169.2933 O.3     1  UNL1       -0.4683
     17 C         142.8692  142.7944  170.2250 C.3     1  UNL1        0.2526
     18 O         140.8495  139.4609  169.8004 O.3     1  UNL1       -0.4654
     19 C         140.3293  139.9307  171.1265 C.3     1  UNL1        0.2528
     20 C         141.6074  143.1060  161.2045 C.ar    1  UNL1        0.0013
     21 C         143.0909  143.2899  161.0808 C.ar    1  UNL1        0.0013
     22 C         143.7892  142.9175  159.8065 C.ar    1  UNL1        0.0145
     23 C         143.0038  142.3611  158.6559 C.ar    1  UNL1        0.0479
     24 C         141.5203  142.1772  158.7797 C.ar    1  UNL1        0.0145
     25 C         140.8221  142.5497  160.0540 C.ar    1  UNL1        0.0013
     26 N         143.7020  141.9886  157.3817 N.pl3   1  UNL1       -0.3045
     27 C         144.5708  140.7669  157.3320 C.3     1  UNL1        0.1099
     28 C         145.2691  140.3944  156.0577 C.3     1  UNL1        0.1168
     29 N         145.0984  141.2436  154.8331 N.3     1  UNL1       -0.1559
     30 C         144.2295  142.4654  154.8828 C.3     1  UNL1        0.1168
     31 C         143.5313  142.8378  156.1571 C.3     1  UNL1        0.1099
     32 S         145.7965  140.8712  153.5588 S.O2    1  UNL1        0.0458
     33 C         146.4947  140.4987  152.2845 C.3     1  UNL1        0.1960
     34 O         145.3079  139.4604  153.7035 O.2     1  UNL1       -0.1572
     35 O         146.2851  142.2819  153.4142 O.2     1  UNL1       -0.1572
@<TRIPOS>BOND
     1    14    15    1
     2    15     8    1
     3     8     9   ar
     4     9    10   ar
     5    10     1    1
     6     1     2   ar
     7     2     3   ar
     8     3     4   ar
     9     4     5   ar
    10     5    20    1
    11    20    21   ar
    12    21    22   ar
    13    22    23   ar
    14    23    26    1
    15    26    27    1
    16    27    28    1
    17    28    29    1
    18    29    32    1
    19    32    33    1
    20    32    34    2
    21    32    35    2
    22    29    30    1
    23    30    31    1
    24    23    24   ar
    25    24    25   ar
    26     5     6   ar
    27     6     7    1
    28    10    11   ar
    29    11    12   ar
    30    12    16    1
    31    16    17    1
    32    12    13   ar
    33    13    18    1
    34    18    19    1
    35    13     8   ar
    36     6     1   ar
    37    25    20   ar
    38    31    26    1
@<TRIPOS>MOLECULE
*****
 35 38 0 0 0
SMALL
GASTEIGER

@<TRIPOS>ATOM
      1 C         142.0000  140.0669  164.2551 C.ar    1  UNL1        0.0154
      2 C         142.7819  138.8186  163.9715 C.ar    1  UNL1        0.0985
      3 N         143.2876  138.5491  162.5853 N.ar    1  UNL1       -0.2423
      4 C         143.0115  139.5278  161.4827 C.ar    1  UNL1        0.0985
      5 C         142.2296  140.7761  161.7663 C.ar    1  UNL1        0.0152
      6 C         141.7239  141.0457  163.1525 C.ar    1  UNL1       -0.0188
      7 C         140.9420  142.2939  163.4361 C.3     1  UNL1        0.0311
      8 C         139.7480  139.9212  167.5196 C.ar    1  UNL1        0.1754
      9 C         140.2537  139.6518  166.1335 C.ar    1  UNL1        0.0403
     10 C         141.4943  140.3364  165.6414 C.ar    1  UNL1        0.0074
     11 C         142.2292  141.2906  166.5355 C.ar    1  UNL1        0.0403
     12 C         141.7235  141.5600  167.9217 C.ar    1  UNL1        0.1754
     13 C         140.4829  140.8754  168.4138 C.ar    1  UNL1        0.2061
     14 C         137.6584  138.4475  167.0596 C.3     1  UNL1        0.2526
     15 O         138.5074  139.2365  168.0117 O.3     1  UNL1       -0.4683
     16 O         142.4583  142.5142  168.8159 O.3     1  UNL1       -0.4683
     17 C         143.5567  142.0131  169.7061 C.3     1  UNL1        0.2526
     18 O         139.9771  141.1449  169.8001 O.3     1  UNL1       -0.4654
     19 C         140.4290  140.2856  170.9435 C.3     1  UNL1        0.2528
     20 C         141.9534  141.7549  160.6637 C.ar    1  UNL1        0.0013
     21 C         140.7383  141.5885  159.8001 C.ar    1  UNL1        0.0013
     22 C         140.4620  142.5673  158.6975 C.ar    1  UNL1        0.0145
     23 C         141.4010  143.7124  158.4584 C.ar    1  UNL1        0.0479
     24 C         142.6162  143.8787  159.3221 C.ar    1  UNL1        0.0145
     25 C         142.8923  142.9000  160.4246 C.ar    1  UNL1        0.0013
     26 N         141.1248  144.6911  157.3558 N.pl3   1  UNL1       -0.3045
     27 C         140.1354  145.7986  157.5665 C.3     1  UNL1        0.1099
     28 C         139.8591  146.7775  156.4639 C.3     1  UNL1        0.1168
     29 N         140.5724  146.6487  155.1507 N.3     1  UNL1       -0.1559
     30 C         141.5619  145.5412  154.9400 C.3     1  UNL1        0.1168
     31 C         141.8381  144.5624  156.0426 C.3     1  UNL1        0.1099
     32 S         140.2962  147.6275  154.0481 S.O2    1  UNL1        0.0458
     33 C         140.0200  148.6063  152.9455 C.3     1  UNL1        0.1960
     34 O         141.2676  146.9044  153.1629 O.2     1  UNL1       -0.1572
     35 O         139.3249  148.3506  154.9333 O.2     1  UNL1       -0.1572
@<TRIPOS>BOND
     1    14    15    1
     2    15     8    1
     3     8     9   ar
     4     9    10   ar
     5    10     1    1
     6     1     2   ar
     7     2     3   ar
     8     3     4   ar
     9     4     5   ar
    10     5    20    1
    11    20    21   ar
    12    21    22   ar
    13    22    23   ar
    14    23    26    1
    15    26    27    1
    16    27    28    1
    17    28    29    1
    18    29    32    1
    19    32    33    1
    20    32    34    2
    21    32    35    2
    22    29    30    1
    23    30    31    1
    24    23    24   ar
    25    24    25   ar
    26     5     6   ar
    27     6     7    1
    28    10    11   ar
    29    11    12   ar
    30    12    16    1
    31    16    17    1
    32    12    13   ar
    33    13    18    1
    34    18    19    1
    35    13     8   ar
    36     6     1   ar
    37    25    20   ar
    38    31    26    1
@<TRIPOS>MOLECULE
*****
 35 38 0 0 0
SMALL
GASTEIGER

@<TRIPOS>ATOM
      1 C         141.3249  142.4271  157.9513 C.ar    1  UNL1        0.0154
      2 C         141.3442  143.2650  156.7074 C.ar    1  UNL1        0.0985
      3 N         141.4959  142.6120  155.3655 N.ar    1  UNL1       -0.2423
      4 C         141.6282  141.1210  155.2676 C.ar    1  UNL1        0.0985
      5 C         141.6089  140.2831  156.5116 C.ar    1  UNL1        0.0152
      6 C         141.4572  140.9362  157.8535 C.ar    1  UNL1       -0.0188
      7 C         141.4379  140.0982  159.0975 C.3     1  UNL1        0.0311
      8 C         139.6568  143.9179  161.2293 C.ar    1  UNL1        0.1754
      9 C         139.8084  143.2649  159.8874 C.ar    1  UNL1        0.0403
     10 C         141.1733  143.0801  159.2932 C.ar    1  UNL1        0.0074
     11 C         142.3864  143.5483  160.0408 C.ar    1  UNL1        0.0403
     12 C         142.2348  144.2014  161.3827 C.ar    1  UNL1        0.1754
     13 C         140.8699  144.3861  161.9769 C.ar    1  UNL1        0.2061
     14 C         137.7205  143.0536  162.7305 C.3     1  UNL1        0.2526
     15 O         138.2919  144.1027  161.8235 O.3     1  UNL1       -0.4683
     16 O         143.4479  144.6696  162.1304 O.3     1  UNL1       -0.4683
     17 C         144.2938  143.6836  162.8800 C.3     1  UNL1        0.2526
     18 O         140.7183  145.0392  163.3188 O.3     1  UNL1       -0.4654
     19 C         140.7635  144.2081  164.5667 C.3     1  UNL1        0.2528
     20 C         141.7412  138.7922  156.4137 C.ar    1  UNL1        0.0013
     21 C         143.0822  138.1449  156.5938 C.ar    1  UNL1        0.0013
     22 C         143.2146  136.6539  156.4959 C.ar    1  UNL1        0.0145
     23 C         142.0058  135.8103  156.2180 C.ar    1  UNL1        0.0479
     24 C         140.6647  136.4577  156.0379 C.ar    1  UNL1        0.0145
     25 C         140.5324  137.9486  156.1358 C.ar    1  UNL1        0.0013
     26 N         142.1381  134.3194  156.1201 N.pl3   1  UNL1       -0.3045
     27 C         141.3140  133.5570  155.1254 C.3     1  UNL1        0.1099
     28 C         141.4462  132.0660  155.0275 C.3     1  UNL1        0.1168
     29 N         142.4027  131.3375  155.9244 N.3     1  UNL1       -0.1559
     30 C         143.2269  132.0999  156.9191 C.3     1  UNL1        0.1168
     31 C         143.0946  133.5908  157.0170 C.3     1  UNL1        0.1099
     32 S         142.5350  129.8466  155.8265 S.O2    1  UNL1        0.0458
     33 C         142.6674  128.3556  155.7287 C.3     1  UNL1        0.1960
     34 O         141.9211  129.8819  154.4584 O.2     1  UNL1       -0.1572
     35 O         143.1489  129.8112  157.1946 O.2     1  UNL1       -0.1572
@<TRIPOS>BOND
     1    14    15    1
     2    15     8    1
     3     8     9   ar
     4     9    10   ar
     5    10     1    1
     6     1     2   ar
     7     2     3   ar
     8     3     4   ar
     9     4     5   ar
    10     5    20    1
    11    20    21   ar
    12    21    22   ar
    13    22    23   ar
    14    23    26    1
    15    26    27    1
    16    27    28    1
    17    28    29    1
    18    29    32    1
    19    32    33    1
    20    32    34    2
    21    32    35    2
    22    29    30    1
    23    30    31    1
    24    23    24   ar
    25    24    25   ar
    26     5     6   ar
    27     6     7    1
    28    10    11   ar
    29    11    12   ar
    30    12    16    1
    31    16    17    1
    32    12    13   ar
    33    13    18    1
    34    18    19    1
    35    13     8   ar
    36     6     1   ar
    37    25    20   ar
    38    31    26    1
