@<TRIPOS>MOLECULE
*****
 32 36 0 0 0
SMALL
GASTEIGER

@<TRIPOS>ATOM
      1 C         141.3378  144.2352  160.1185 C.3     1  UNL1        0.1700
      2 O         141.4687  145.6964  159.8062 O.3     1  UNL1       -0.3793
      3 H         140.6121  146.0418  159.5099 H       1  UNL1        0.2106
      4 C         140.0154  143.5476  159.9493 C.3     1  UNL1        0.2358
      5 O         138.8675  143.8978  160.8490 O.3     1  UNL1       -0.4715
      6 O         137.8052  138.7393  162.0783 O.2     1  UNL1       -0.2726
      7 C         138.1847  139.9443  162.8870 C.2     1  UNL1        0.2501
      8 C         138.3366  139.8315  164.3750 C.3     1  UNL1        0.1132
      9 C         138.7161  141.0365  165.1837 C.2     1  UNL1       -0.0151
     10 C         138.9437  142.3543  164.5044 C.ar    1  UNL1        0.0145
     11 C         139.3232  143.5593  165.3131 C.ar    1  UNL1        0.0012
     12 C         139.5508  144.8771  164.6338 C.ar    1  UNL1        0.0032
     13 C         139.3989  144.9900  163.1457 C.ar    1  UNL1        0.0382
     14 C         139.0194  143.7850  162.3370 C.ar    1  UNL1        0.1538
     15 C         138.7918  142.4671  163.0164 C.ar    1  UNL1        0.1068
     16 N         138.4123  141.2621  162.2077 N.am    1  UNL1       -0.1759
     17 C         142.5293  143.4614  160.5999 C.3     1  UNL1        0.1056
     18 N         142.5853  142.9760  162.0181 N.3     1  UNL1       -0.2703
     19 C         142.9404  143.9266  163.1227 C.3     1  UNL1        0.0758
     20 C         142.9964  143.4411  164.5409 C.3     1  UNL1        0.0577
     21 C         142.6972  142.0051  164.8544 C.3     1  UNL1        0.1399
     22 C         142.3420  141.0545  163.7497 C.3     1  UNL1        0.0577
     23 C         142.2861  141.5400  162.3316 C.3     1  UNL1        0.0758
     24 C         142.4244  140.6050  165.3184 C.3     1  UNL1        0.0695
     25 C         142.5944  140.5690  166.8084 C.ar    1  UNL1        0.0161
     26 C         142.4540  139.4597  167.8082 C.ar    1  UNL1        0.0102
     27 C         142.6913  139.7282  169.2647 C.ar    1  UNL1        0.0576
     28 CL        142.5509  138.6189  170.2645 Cl      1  UNL1       -0.0823
     29 C         143.0691  141.1061  169.7215 C.ar    1  UNL1        0.0145
     30 C         143.2096  142.2155  168.7217 C.ar    1  UNL1        0.0374
     31 C         142.9722  141.9470  167.2652 C.ar    1  UNL1        0.1343
     32 O         143.0357  142.8345  166.0576 O.3     1  UNL1       -0.4825
@<TRIPOS>BOND
     1     6     7    2
     2     7     8    1
     3     8     9    1
     4     9    10    2
     5    10    11   ar
     6    11    12   ar
     7    12    13   ar
     8    13    14   ar
     9    14     5    1
    10     5     4    1
    11     4     1    1
    12     1     2    1
    13     1    17    1
    14    17    18    1
    15    18    19    1
    16    19    20    1
    17    20    21    1
    18    21    22    1
    19    22    23    1
    20    21    24    1
    21    24    25    1
    22    25    26   ar
    23    26    27   ar
    24    27    28    1
    25    27    29   ar
    26    29    30   ar
    27    30    31   ar
    28    31    32    1
    29    14    15   ar
    30    15    16    2
    31    16     7    1
    32    15    10   ar
    33    23    18    1
    34    31    25   ar
    35    32    21    1
    36     2     3    1
@<TRIPOS>MOLECULE
*****
 32 36 0 0 0
SMALL
GASTEIGER

@<TRIPOS>ATOM
      1 C         140.8267  144.9959  160.8435 C.3     1  UNL1        0.1700
      2 O         141.8733  145.5218  159.9065 O.3     1  UNL1       -0.3793
      3 H         141.7980  145.0702  159.0513 H       1  UNL1        0.2106
      4 C         139.8759  143.9305  160.3842 C.3     1  UNL1        0.2358
      5 O         140.1418  142.4928  160.7194 O.3     1  UNL1       -0.4715
      6 O         143.5833  138.8710  162.7902 O.2     1  UNL1       -0.2726
      7 C         142.1844  139.2905  163.1325 C.2     1  UNL1        0.2501
      8 C         141.4664  138.6426  164.2790 C.3     1  UNL1        0.1132
      9 C         140.0675  139.0621  164.6213 C.2     1  UNL1       -0.0151
     10 C         139.3866  140.1295  163.8169 C.ar    1  UNL1        0.0145
     11 C         137.9877  140.5490  164.1592 C.ar    1  UNL1        0.0012
     12 C         137.3069  141.6164  163.3548 C.ar    1  UNL1        0.0032
     13 C         138.0249  142.2644  162.2082 C.ar    1  UNL1        0.0382
     14 C         139.4238  141.8449  161.8660 C.ar    1  UNL1        0.1538
     15 C         140.1046  140.7774  162.6704 C.ar    1  UNL1        0.1068
     16 N         141.5035  140.3579  162.3281 N.am    1  UNL1       -0.1759
     17 C         140.7308  145.5354  162.2398 C.3     1  UNL1        0.1056
     18 N         140.8262  144.6042  163.4119 N.3     1  UNL1       -0.2703
     19 C         139.6899  144.5059  164.3861 C.3     1  UNL1        0.0758
     20 C         139.7853  143.5746  165.5582 C.3     1  UNL1        0.0577
     21 C         141.0170  142.7417  165.7560 C.3     1  UNL1        0.1399
     22 C         142.1533  142.8400  164.7817 C.3     1  UNL1        0.0577
     23 C         142.0579  143.7712  163.6097 C.3     1  UNL1        0.0758
     24 C         142.1792  141.8512  166.0822 C.3     1  UNL1        0.0695
     25 C         141.8474  141.0965  167.3355 C.ar    1  UNL1        0.0161
     26 C         142.6136  140.0780  168.1264 C.ar    1  UNL1        0.0102
     27 C         142.0126  139.4836  169.3655 C.ar    1  UNL1        0.0576
     28 CL        142.7788  138.4651  170.1564 Cl      1  UNL1       -0.0823
     29 C         140.6455  139.9077  169.8138 C.ar    1  UNL1        0.0145
     30 C         139.8792  140.9263  169.0229 C.ar    1  UNL1        0.0374
     31 C         140.4802  141.5207  167.7838 C.ar    1  UNL1        0.1343
     32 O         139.9670  142.5374  166.8076 O.3     1  UNL1       -0.4825
@<TRIPOS>BOND
     1     6     7    2
     2     7     8    1
     3     8     9    1
     4     9    10    2
     5    10    11   ar
     6    11    12   ar
     7    12    13   ar
     8    13    14   ar
     9    14     5    1
    10     5     4    1
    11     4     1    1
    12     1     2    1
    13     1    17    1
    14    17    18    1
    15    18    19    1
    16    19    20    1
    17    20    21    1
    18    21    22    1
    19    22    23    1
    20    21    24    1
    21    24    25    1
    22    25    26   ar
    23    26    27   ar
    24    27    28    1
    25    27    29   ar
    26    29    30   ar
    27    30    31   ar
    28    31    32    1
    29    14    15   ar
    30    15    16    2
    31    16     7    1
    32    15    10   ar
    33    23    18    1
    34    31    25   ar
    35    32    21    1
    36     2     3    1
@<TRIPOS>MOLECULE
*****
 32 36 0 0 0
SMALL
GASTEIGER

@<TRIPOS>ATOM
      1 C         141.6509  144.0833  160.1206 C.3     1  UNL1        0.1700
      2 O         141.7331  145.5417  159.7794 O.3     1  UNL1       -0.3793
      3 H         142.6010  145.7345  159.3914 H       1  UNL1        0.2106
      4 C         142.8175  143.1815  159.8446 C.3     1  UNL1        0.2358
      5 O         144.0798  143.3227  160.6424 O.3     1  UNL1       -0.4715
      6 O         143.8657  138.0870  161.9808 O.2     1  UNL1       -0.2726
      7 C         143.8811  139.3625  162.7700 C.2     1  UNL1        0.2501
      8 C         143.8302  139.3179  164.2684 C.3     1  UNL1        0.1132
      9 C         143.8456  140.5934  165.0577 C.2     1  UNL1       -0.0151
     10 C         143.9118  141.9134  164.3485 C.ar    1  UNL1        0.0145
     11 C         143.9272  143.1889  165.1378 C.ar    1  UNL1        0.0012
     12 C         143.9934  144.5090  164.4286 C.ar    1  UNL1        0.0032
     13 C         144.0443  144.5536  162.9300 C.ar    1  UNL1        0.0382
     14 C         144.0289  143.2781  162.1408 C.ar    1  UNL1        0.1538
     15 C         143.9627  141.9580  162.8501 C.ar    1  UNL1        0.1068
     16 N         143.9473  140.6826  162.0608 N.am    1  UNL1       -0.1759
     17 C         140.4023  143.5267  160.7379 C.3     1  UNL1        0.1056
     18 N         140.3689  143.2046  162.2026 N.3     1  UNL1       -0.2703
     19 C         140.4175  144.3104  163.2149 C.3     1  UNL1        0.0758
     20 C         140.3841  143.9883  164.6795 C.3     1  UNL1        0.0577
     21 C         140.3021  142.5605  165.1318 C.3     1  UNL1        0.1399
     22 C         140.2536  141.4547  164.1195 C.3     1  UNL1        0.0577
     23 C         140.2870  141.7768  162.6549 C.3     1  UNL1        0.0758
     24 C         140.2215  141.1877  165.7311 C.3     1  UNL1        0.0695
     25 C         140.2131  141.3334  167.2240 C.ar    1  UNL1        0.0161
     26 C         140.1465  140.3232  168.3307 C.ar    1  UNL1        0.0102
     27 C         140.1552  140.7756  169.7608 C.ar    1  UNL1        0.0576
     28 CL        140.0887  139.7654  170.8676 Cl      1  UNL1       -0.0823
     29 C         140.2306  142.2384  170.0842 C.ar    1  UNL1        0.0145
     30 C         140.2972  143.2488  168.9775 C.ar    1  UNL1        0.0374
     31 C         140.2884  142.7963  167.5474 C.ar    1  UNL1        0.1343
     32 O         140.3434  143.5546  166.2544 O.3     1  UNL1       -0.4825
@<TRIPOS>BOND
     1     6     7    2
     2     7     8    1
     3     8     9    1
     4     9    10    2
     5    10    11   ar
     6    11    12   ar
     7    12    13   ar
     8    13    14   ar
     9    14     5    1
    10     5     4    1
    11     4     1    1
    12     1     2    1
    13     1    17    1
    14    17    18    1
    15    18    19    1
    16    19    20    1
    17    20    21    1
    18    21    22    1
    19    22    23    1
    20    21    24    1
    21    24    25    1
    22    25    26   ar
    23    26    27   ar
    24    27    28    1
    25    27    29   ar
    26    29    30   ar
    27    30    31   ar
    28    31    32    1
    29    14    15   ar
    30    15    16    2
    31    16     7    1
    32    15    10   ar
    33    23    18    1
    34    31    25   ar
    35    32    21    1
    36     2     3    1
@<TRIPOS>MOLECULE
*****
 32 36 0 0 0
SMALL
GASTEIGER

@<TRIPOS>ATOM
      1 C         142.4454  138.3014  160.8961 C.3     1  UNL1        0.1700
      2 O         142.9586  136.9787  160.4092 O.3     1  UNL1       -0.3793
      3 H         142.2867  136.5567  159.8512 H       1  UNL1        0.2106
      4 C         141.0771  138.7682  160.4962 C.3     1  UNL1        0.2358
      5 O         139.8606  138.1029  161.0684 O.3     1  UNL1       -0.4715
      6 O         138.0087  143.1816  160.9030 O.2     1  UNL1       -0.2726
      7 C         138.1366  142.1561  161.9902 C.2     1  UNL1        0.2501
      8 C         137.6898  142.4816  163.3846 C.3     1  UNL1        0.1132
      9 C         137.8176  141.4560  164.4717 C.2     1  UNL1       -0.0151
     10 C         138.3923  140.1050  164.1645 C.ar    1  UNL1        0.0145
     11 C         138.5202  139.0795  165.2517 C.ar    1  UNL1        0.0012
     12 C         139.0948  137.7284  164.9444 C.ar    1  UNL1        0.0032
     13 C         139.5417  137.4029  163.5500 C.ar    1  UNL1        0.0382
     14 C         139.4138  138.4284  162.4628 C.ar    1  UNL1        0.1538
     15 C         138.8391  139.7795  162.7701 C.ar    1  UNL1        0.1068
     16 N         138.7112  140.8050  161.6829 N.am    1  UNL1       -0.1759
     17 C         143.3003  139.1572  161.7830 C.3     1  UNL1        0.1056
     18 N         142.8165  139.5374  163.1510 N.3     1  UNL1       -0.2703
     19 C         142.8926  138.5475  164.2754 C.3     1  UNL1        0.0758
     20 C         142.4088  138.9278  165.6434 C.3     1  UNL1        0.0577
     21 C         141.8489  140.2979  165.8869 C.3     1  UNL1        0.1399
     22 C         141.7729  141.2878  164.7625 C.3     1  UNL1        0.0577
     23 C         142.2567  140.9076  163.3946 C.3     1  UNL1        0.0758
     24 C         141.2675  141.6237  166.2796 C.3     1  UNL1        0.0695
     25 C         140.9208  141.5643  167.7378 C.ar    1  UNL1        0.0161
     26 C         140.3183  142.5748  168.6683 C.ar    1  UNL1        0.0102
     27 C         140.0829  142.2228  170.1072 C.ar    1  UNL1        0.0576
     28 CL        139.4804  143.2334  171.0377 Cl      1  UNL1       -0.0823
     29 C         140.4500  140.8603  170.6158 C.ar    1  UNL1        0.0145
     30 C         141.0526  139.8497  169.6854 C.ar    1  UNL1        0.0374
     31 C         141.2880  140.2017  168.2464 C.ar    1  UNL1        0.1343
     32 O         141.8616  139.4190  167.1025 O.3     1  UNL1       -0.4825
@<TRIPOS>BOND
     1     6     7    2
     2     7     8    1
     3     8     9    1
     4     9    10    2
     5    10    11   ar
     6    11    12   ar
     7    12    13   ar
     8    13    14   ar
     9    14     5    1
    10     5     4    1
    11     4     1    1
    12     1     2    1
    13     1    17    1
    14    17    18    1
    15    18    19    1
    16    19    20    1
    17    20    21    1
    18    21    22    1
    19    22    23    1
    20    21    24    1
    21    24    25    1
    22    25    26   ar
    23    26    27   ar
    24    27    28    1
    25    27    29   ar
    26    29    30   ar
    27    30    31   ar
    28    31    32    1
    29    14    15   ar
    30    15    16    2
    31    16     7    1
    32    15    10   ar
    33    23    18    1
    34    31    25   ar
    35    32    21    1
    36     2     3    1
@<TRIPOS>MOLECULE
*****
 32 36 0 0 0
SMALL
GASTEIGER

@<TRIPOS>ATOM
      1 C         138.1216  140.3887  160.9223 C.3     1  UNL1        0.1700
      2 O         136.7716  139.7763  160.6929 O.3     1  UNL1       -0.3793
      3 H         136.2193  140.3918  160.1859 H       1  UNL1        0.2106
      4 C         138.4253  141.7567  160.3871 C.3     1  UNL1        0.2358
      5 O         137.8010  142.9651  161.0195 O.3     1  UNL1       -0.4715
      6 O         143.0799  143.8812  160.2819 O.2     1  UNL1       -0.2726
      7 C         142.1502  144.0379  161.4485 C.2     1  UNL1        0.2501
      8 C         142.6701  144.5520  162.7582 C.3     1  UNL1        0.1132
      9 C         141.7403  144.7086  163.9248 C.2     1  UNL1       -0.0151
     10 C         140.2907  144.3511  163.7818 C.ar    1  UNL1        0.0145
     11 C         139.3609  144.5077  164.9485 C.ar    1  UNL1        0.0012
     12 C         137.9112  144.1501  164.8055 C.ar    1  UNL1        0.0032
     13 C         137.3912  143.6359  163.4957 C.ar    1  UNL1        0.0382
     14 C         138.3210  143.4793  162.3291 C.ar    1  UNL1        0.1538
     15 C         139.7707  143.8369  162.4722 C.ar    1  UNL1        0.1068
     16 N         140.7005  143.6803  161.3055 N.am    1  UNL1       -0.1759
     17 C         139.1678  139.6331  161.6869 C.3     1  UNL1        0.1056
     18 N         139.6167  140.1257  163.0308 N.3     1  UNL1       -0.2703
     19 C         138.6322  140.2339  164.1572 C.3     1  UNL1        0.0758
     20 C         139.0811  140.7264  165.5010 C.3     1  UNL1        0.0577
     21 C         140.5147  141.1108  165.7183 C.3     1  UNL1        0.1399
     22 C         141.4992  141.0026  164.5919 C.3     1  UNL1        0.0577
     23 C         141.0503  140.5100  163.2481 C.3     1  UNL1        0.0758
     24 C         141.9081  141.5293  166.0836 C.3     1  UNL1        0.0695
     25 C         141.9037  141.9485  167.5239 C.ar    1  UNL1        0.0161
     26 C         142.9905  142.4547  168.4252 C.ar    1  UNL1        0.0102
     27 C         142.6813  142.8016  169.8514 C.ar    1  UNL1        0.0576
     28 CL        143.7681  143.3079  170.7527 Cl      1  UNL1       -0.0823
     29 C         141.2852  142.6422  170.3763 C.ar    1  UNL1        0.0145
     30 C         140.1983  142.1359  169.4749 C.ar    1  UNL1        0.0374
     31 C         140.5075  141.7890  168.0487 C.ar    1  UNL1        0.1343
     32 O         139.6491  141.2713  166.9329 O.3     1  UNL1       -0.4825
@<TRIPOS>BOND
     1     6     7    2
     2     7     8    1
     3     8     9    1
     4     9    10    2
     5    10    11   ar
     6    11    12   ar
     7    12    13   ar
     8    13    14   ar
     9    14     5    1
    10     5     4    1
    11     4     1    1
    12     1     2    1
    13     1    17    1
    14    17    18    1
    15    18    19    1
    16    19    20    1
    17    20    21    1
    18    21    22    1
    19    22    23    1
    20    21    24    1
    21    24    25    1
    22    25    26   ar
    23    26    27   ar
    24    27    28    1
    25    27    29   ar
    26    29    30   ar
    27    30    31   ar
    28    31    32    1
    29    14    15   ar
    30    15    16    2
    31    16     7    1
    32    15    10   ar
    33    23    18    1
    34    31    25   ar
    35    32    21    1
    36     2     3    1
@<TRIPOS>MOLECULE
*****
 32 36 0 0 0
SMALL
GASTEIGER

@<TRIPOS>ATOM
      1 C         138.1570  140.0813  159.9886 C.3     1  UNL1        0.1700
      2 O         138.3203  139.9513  158.5032 O.3     1  UNL1       -0.3793
      3 H         138.2228  139.0207  158.2475 H       1  UNL1        0.2106
      4 C         137.8871  138.8643  160.8229 C.3     1  UNL1        0.2358
      5 O         139.0094  137.9351  161.1790 O.3     1  UNL1       -0.4715
      6 O         144.2261  138.9645  160.1910 O.2     1  UNL1       -0.2726
      7 C         143.4202  138.7864  161.4435 C.2     1  UNL1        0.2501
      8 C         144.0845  138.8920  162.7842 C.3     1  UNL1        0.1132
      9 C         143.2786  138.7139  164.0367 C.2     1  UNL1       -0.0151
     10 C         141.8084  138.4301  163.9486 C.ar    1  UNL1        0.0145
     11 C         141.0025  138.2520  165.2011 C.ar    1  UNL1        0.0012
     12 C         139.5323  137.9683  165.1129 C.ar    1  UNL1        0.0032
     13 C         138.8678  137.8626  163.7722 C.ar    1  UNL1        0.0382
     14 C         139.6737  138.0407  162.5197 C.ar    1  UNL1        0.1538
     15 C         141.1441  138.3245  162.6079 C.ar    1  UNL1        0.1068
     16 N         141.9499  138.5026  161.3554 N.am    1  UNL1       -0.1759
     17 C         138.2638  141.4284  160.6398 C.3     1  UNL1        0.1056
     18 N         138.8961  141.5590  161.9937 N.3     1  UNL1       -0.2703
     19 C         138.0438  141.5127  163.2272 C.3     1  UNL1        0.0758
     20 C         138.6762  141.6433  164.5810 C.3     1  UNL1        0.0577
     21 C         140.1609  141.8201  164.7015 C.3     1  UNL1        0.1399
     22 C         141.0132  141.8663  163.4680 C.3     1  UNL1        0.0577
     23 C         140.3808  141.7358  162.1142 C.3     1  UNL1        0.0758
     24 C         141.6241  142.0011  164.9774 C.3     1  UNL1        0.0695
     25 C         141.8087  142.0855  166.4637 C.ar    1  UNL1        0.0161
     26 C         143.0309  142.2629  167.3149 C.ar    1  UNL1        0.0102
     27 C         142.9039  142.3116  168.8087 C.ar    1  UNL1        0.0576
     28 CL        144.1261  142.4891  169.6599 Cl      1  UNL1       -0.0823
     29 C         141.5547  142.1829  169.4513 C.ar    1  UNL1        0.0145
     30 C         140.3324  142.0054  168.6001 C.ar    1  UNL1        0.0374
     31 C         140.4593  141.9567  167.1063 C.ar    1  UNL1        0.1343
     32 O         139.4410  141.7927  166.0172 O.3     1  UNL1       -0.4825
@<TRIPOS>BOND
     1     6     7    2
     2     7     8    1
     3     8     9    1
     4     9    10    2
     5    10    11   ar
     6    11    12   ar
     7    12    13   ar
     8    13    14   ar
     9    14     5    1
    10     5     4    1
    11     4     1    1
    12     1     2    1
    13     1    17    1
    14    17    18    1
    15    18    19    1
    16    19    20    1
    17    20    21    1
    18    21    22    1
    19    22    23    1
    20    21    24    1
    21    24    25    1
    22    25    26   ar
    23    26    27   ar
    24    27    28    1
    25    27    29   ar
    26    29    30   ar
    27    30    31   ar
    28    31    32    1
    29    14    15   ar
    30    15    16    2
    31    16     7    1
    32    15    10   ar
    33    23    18    1
    34    31    25   ar
    35    32    21    1
    36     2     3    1
@<TRIPOS>MOLECULE
*****
 32 36 0 0 0
SMALL
GASTEIGER

@<TRIPOS>ATOM
      1 C         142.2601  142.6798  159.7586 C.3     1  UNL1        0.1700
      2 O         143.1601  143.7292  159.1766 O.3     1  UNL1       -0.3793
      3 H         143.9114  143.3025  158.7357 H       1  UNL1        0.2106
      4 C         142.6017  141.2277  159.6015 C.3     1  UNL1        0.2358
      5 O         143.8370  140.6737  160.2474 O.3     1  UNL1       -0.4715
      6 O         140.9405  136.9232  162.8539 O.2     1  UNL1       -0.2726
      7 C         141.8501  138.0298  163.2989 C.2     1  UNL1        0.2501
      8 C         142.0973  138.2552  164.7611 C.3     1  UNL1        0.1132
      9 C         143.0068  139.3619  165.2061 C.2     1  UNL1       -0.0151
     10 C         143.6691  140.2431  164.1890 C.ar    1  UNL1        0.0145
     11 C         144.5787  141.3498  164.6340 C.ar    1  UNL1        0.0012
     12 C         145.2410  142.2311  163.6169 C.ar    1  UNL1        0.0032
     13 C         144.9938  142.0057  162.1546 C.ar    1  UNL1        0.0382
     14 C         144.0842  140.8991  161.7096 C.ar    1  UNL1        0.1538
     15 C         143.4219  140.0178  162.7268 C.ar    1  UNL1        0.1068
     16 N         142.5124  138.9111  162.2818 N.am    1  UNL1       -0.1759
     17 C         141.0185  143.0825  160.4976 C.3     1  UNL1        0.1056
     18 N         140.8643  142.7370  161.9492 N.3     1  UNL1       -0.2703
     19 C         140.0510  141.5434  162.3537 C.3     1  UNL1        0.0758
     20 C         139.8969  141.1980  163.8052 C.3     1  UNL1        0.0577
     21 C         140.5560  142.0462  164.8522 C.3     1  UNL1        0.1399
     22 C         141.3694  143.2398  164.4476 C.3     1  UNL1        0.0577
     23 C         141.5235  143.5852  162.9961 C.3     1  UNL1        0.0758
     24 C         141.1532  142.7968  166.0054 C.3     1  UNL1        0.0695
     25 C         140.7439  142.1040  167.2713 C.ar    1  UNL1        0.0161
     26 C         141.0355  142.3942  168.7138 C.ar    1  UNL1        0.0102
     27 C         140.4769  141.5056  169.7854 C.ar    1  UNL1        0.0576
     28 CL        140.7685  141.7958  171.2278 Cl      1  UNL1       -0.0823
     29 C         139.6268  140.3268  169.4146 C.ar    1  UNL1        0.0145
     30 C         139.3351  140.0365  167.9721 C.ar    1  UNL1        0.0374
     31 C         139.8937  140.9251  166.9004 C.ar    1  UNL1        0.1343
     32 O         139.7776  140.8893  165.4054 O.3     1  UNL1       -0.4825
@<TRIPOS>BOND
     1     6     7    2
     2     7     8    1
     3     8     9    1
     4     9    10    2
     5    10    11   ar
     6    11    12   ar
     7    12    13   ar
     8    13    14   ar
     9    14     5    1
    10     5     4    1
    11     4     1    1
    12     1     2    1
    13     1    17    1
    14    17    18    1
    15    18    19    1
    16    19    20    1
    17    20    21    1
    18    21    22    1
    19    22    23    1
    20    21    24    1
    21    24    25    1
    22    25    26   ar
    23    26    27   ar
    24    27    28    1
    25    27    29   ar
    26    29    30   ar
    27    30    31   ar
    28    31    32    1
    29    14    15   ar
    30    15    16    2
    31    16     7    1
    32    15    10   ar
    33    23    18    1
    34    31    25   ar
    35    32    21    1
    36     2     3    1
@<TRIPOS>MOLECULE
*****
 32 36 0 0 0
SMALL
GASTEIGER

@<TRIPOS>ATOM
      1 C         143.2942  138.7207  160.3836 C.3     1  UNL1        0.1700
      2 O         142.3768  138.0950  159.3752 O.3     1  UNL1       -0.3793
      3 H         142.2394  138.7099  158.6377 H       1  UNL1        0.2106
      4 C         143.8385  140.0987  160.1490 C.3     1  UNL1        0.2358
      5 O         143.1707  141.2859  160.7771 O.3     1  UNL1       -0.4715
      6 O         138.5890  142.3088  163.4627 O.2     1  UNL1       -0.2726
      7 C         140.0439  142.3949  163.8174 C.2     1  UNL1        0.2501
      8 C         140.4566  142.8508  165.1856 C.3     1  UNL1        0.1132
      9 C         141.9115  142.9369  165.5403 C.2     1  UNL1       -0.0151
     10 C         142.9537  142.5672  164.5269 C.ar    1  UNL1        0.0145
     11 C         144.4086  142.6533  164.8817 C.ar    1  UNL1        0.0012
     12 C         145.4509  142.2837  163.8682 C.ar    1  UNL1        0.0032
     13 C         145.0382  141.8278  162.5000 C.ar    1  UNL1        0.0382
     14 C         143.5833  141.7417  162.1453 C.ar    1  UNL1        0.1538
     15 C         142.5411  142.1114  163.1588 C.ar    1  UNL1        0.1068
     16 N         141.0862  142.0253  162.8040 N.am    1  UNL1       -0.1759
     17 C         143.6672  137.9686  161.6266 C.3     1  UNL1        0.1056
     18 N         143.0944  138.3777  162.9512 N.3     1  UNL1       -0.2703
     19 C         141.6074  138.4393  163.1385 C.3     1  UNL1        0.0758
     20 C         141.0346  138.8485  164.4630 C.3     1  UNL1        0.0577
     21 C         141.9488  139.1961  165.6003 C.3     1  UNL1        0.1399
     22 C         143.4358  139.1344  165.4131 C.3     1  UNL1        0.0577
     23 C         144.0085  138.7253  164.0885 C.3     1  UNL1        0.0758
     24 C         142.7337  139.5701  166.8227 C.3     1  UNL1        0.0695
     25 C         141.7605  139.9083  167.9130 C.ar    1  UNL1        0.0161
     26 C         141.9576  140.3451  169.3343 C.ar    1  UNL1        0.0102
     27 C         140.7684  140.6169  170.2072 C.ar    1  UNL1        0.0576
     28 CL        140.9654  141.0538  171.6285 Cl      1  UNL1       -0.0823
     29 C         139.3821  140.4519  169.6587 C.ar    1  UNL1        0.0145
     30 C         139.1849  140.0150  168.2373 C.ar    1  UNL1        0.0374
     31 C         140.3741  139.7432  167.3644 C.ar    1  UNL1        0.1343
     32 O         140.4905  139.3030  165.9352 O.3     1  UNL1       -0.4825
@<TRIPOS>BOND
     1     6     7    2
     2     7     8    1
     3     8     9    1
     4     9    10    2
     5    10    11   ar
     6    11    12   ar
     7    12    13   ar
     8    13    14   ar
     9    14     5    1
    10     5     4    1
    11     4     1    1
    12     1     2    1
    13     1    17    1
    14    17    18    1
    15    18    19    1
    16    19    20    1
    17    20    21    1
    18    21    22    1
    19    22    23    1
    20    21    24    1
    21    24    25    1
    22    25    26   ar
    23    26    27   ar
    24    27    28    1
    25    27    29   ar
    26    29    30   ar
    27    30    31   ar
    28    31    32    1
    29    14    15   ar
    30    15    16    2
    31    16     7    1
    32    15    10   ar
    33    23    18    1
    34    31    25   ar
    35    32    21    1
    36     2     3    1
@<TRIPOS>MOLECULE
*****
 32 36 0 0 0
SMALL
GASTEIGER

@<TRIPOS>ATOM
      1 C         142.6875  143.3196  159.0617 C.3     1  UNL1        0.1700
      2 O         143.1333  144.3827  158.1018 O.3     1  UNL1       -0.3793
      3 H         142.4490  144.5170  157.4275 H       1  UNL1        0.2106
      4 C         141.3562  142.6534  158.8776 C.3     1  UNL1        0.2358
      5 O         140.0922  143.4239  159.1195 O.3     1  UNL1       -0.4715
      6 O         137.6656  139.5062  161.9503 O.2     1  UNL1       -0.2726
      7 C         138.0636  140.9190  162.2596 C.2     1  UNL1        0.2501
      8 C         137.7853  141.4968  163.6155 C.3     1  UNL1        0.1132
      9 C         138.1832  142.9096  163.9248 C.2     1  UNL1       -0.0151
     10 C         138.8594  143.7446  162.8781 C.ar    1  UNL1        0.0145
     11 C         139.2573  145.1573  163.1874 C.ar    1  UNL1        0.0012
     12 C         139.9335  145.9923  162.1407 C.ar    1  UNL1        0.0032
     13 C         140.2118  145.4145  160.7847 C.ar    1  UNL1        0.0382
     14 C         139.8139  144.0017  160.4754 C.ar    1  UNL1        0.1538
     15 C         139.1377  143.1667  161.5222 C.ar    1  UNL1        0.1068
     16 N         138.7397  141.7539  161.2129 N.am    1  UNL1       -0.1759
     17 C         143.5730  142.9228  160.2055 C.3     1  UNL1        0.1056
     18 N         142.9735  142.6085  161.5441 N.3     1  UNL1       -0.2703
     19 C         142.3853  141.2531  161.8028 C.3     1  UNL1        0.0758
     20 C         141.7858  140.9388  163.1414 C.3     1  UNL1        0.0577
     21 C         141.7745  141.9799  164.2212 C.3     1  UNL1        0.1399
     22 C         142.3627  143.3352  163.9625 C.3     1  UNL1        0.0577
     23 C         142.9622  143.6495  162.6239 C.3     1  UNL1        0.0758
     24 C         141.6916  142.9145  165.3916 C.3     1  UNL1        0.0695
     25 C         141.0185  142.1880  166.5182 C.ar    1  UNL1        0.0161
     26 C         140.6659  142.6075  167.9145 C.ar    1  UNL1        0.0102
     27 C         139.9802  141.6435  168.8367 C.ar    1  UNL1        0.0576
     28 CL        139.6275  142.0631  170.2329 Cl      1  UNL1       -0.0823
     29 C         139.6471  140.2600  168.3627 C.ar    1  UNL1        0.0145
     30 C         139.9997  139.8403  166.9663 C.ar    1  UNL1        0.0374
     31 C         140.6855  140.8043  166.0441 C.ar    1  UNL1        0.1343
     32 O         141.1527  140.6757  164.6246 O.3     1  UNL1       -0.4825
@<TRIPOS>BOND
     1     6     7    2
     2     7     8    1
     3     8     9    1
     4     9    10    2
     5    10    11   ar
     6    11    12   ar
     7    12    13   ar
     8    13    14   ar
     9    14     5    1
    10     5     4    1
    11     4     1    1
    12     1     2    1
    13     1    17    1
    14    17    18    1
    15    18    19    1
    16    19    20    1
    17    20    21    1
    18    21    22    1
    19    22    23    1
    20    21    24    1
    21    24    25    1
    22    25    26   ar
    23    26    27   ar
    24    27    28    1
    25    27    29   ar
    26    29    30   ar
    27    30    31   ar
    28    31    32    1
    29    14    15   ar
    30    15    16    2
    31    16     7    1
    32    15    10   ar
    33    23    18    1
    34    31    25   ar
    35    32    21    1
    36     2     3    1
