@<TRIPOS>MOLECULE
*****
 51 57 0 0 0
SMALL
GASTEIGER

@<TRIPOS>ATOM
      1 C         140.8862  141.2695  161.0460 C.3     1  UNL1        0.0236
      2 C         140.3088  140.0696  160.3554 C.3     1  UNL1        0.0257
      3 C         141.0775  139.3929  159.2593 C.3     1  UNL1        0.0940
      4 N         142.4236  139.9161  158.8540 N.am    1  UNL1       -0.2760
      5 C         143.1924  139.2394  157.7580 C.2     1  UNL1        0.2512
      6 O         144.5385  139.7625  157.3527 O.2     1  UNL1       -0.2698
      7 C         143.0010  141.1159  159.5447 C.3     1  UNL1        0.0940
      8 C         142.2324  141.7926  160.6407 C.3     1  UNL1        0.0257
      9 C         142.6149  138.0396  157.0674 C.ar    1  UNL1        0.0824
     10 C         143.0376  136.6608  157.4801 C.ar    1  UNL1        0.0249
     11 C         142.4601  135.4611  156.7894 C.ar    1  UNL1        0.0921
     12 C         141.4598  135.6401  155.6860 C.ar    1  UNL1        0.1568
     13 F         140.8823  134.4403  154.9954 F       1  UNL1       -0.2027
     14 C         141.0370  137.0188  155.2733 C.ar    1  UNL1        0.0607
     15 C         141.6146  138.2186  155.9640 C.ar    1  UNL1        0.1468
     16 F         141.1918  139.5973  155.5514 F       1  UNL1       -0.2039
     17 N         142.8829  134.0823  157.2021 N.pl3   1  UNL1       -0.2166
     18 H         142.9273  133.8462  158.1568 H       1  UNL1        0.1734
     19 S         143.2379  133.0634  156.1601 S.O2    1  UNL1        0.0523
     20 O         142.2062  132.1302  156.7211 O.2     1  UNL1       -0.1545
     21 O         144.2697  133.9965  155.5991 O.2     1  UNL1       -0.1545
     22 C         143.5930  132.0444  155.1181 C.3     1  UNL1        0.1489
     23 C         142.9579  132.1072  153.7607 C.3     1  UNL1        0.0273
     24 C         144.5831  130.9628  155.4335 C.3     1  UNL1        0.0273
     25 C         141.0113  142.4273  161.9915 C.ar    1  UNL1       -0.0204
     26 C         140.9378  143.8321  161.4709 C.ar    1  UNL1       -0.0041
     27 C         141.0629  144.9899  162.4163 C.ar    1  UNL1        0.0020
     28 C         141.2614  144.7428  163.8825 C.ar    1  UNL1        0.0296
     29 C         141.3348  143.3379  164.4032 C.ar    1  UNL1        0.1398
     30 F         141.5333  143.0909  165.8692 F       1  UNL1       -0.2042
     31 C         141.2098  142.1802  163.4576 C.ar    1  UNL1        0.0254
     32 C         139.5836  141.1484  161.7797 C.3     1  UNL1        0.0215
     33 C         138.2934  141.4336  161.0695 C.3     1  UNL1        0.0723
     34 C         138.2629  141.3717  160.9285 C.3     1  UNL1        0.0893
     35 C         138.7093  142.6798  160.3456 C.3     1  UNL1        0.0386
     36 C         138.6999  142.8807  158.8592 C.3     1  UNL1        0.0594
     37 C         138.5300  142.6409  157.3882 C.3     1  UNL1        0.0174
     38 C         138.0091  141.2465  157.2031 C.3     1  UNL1        0.0174
     39 C         137.8571  140.6245  158.5595 C.3     1  UNL1        0.0594
     40 C         137.8071  140.2646  160.0249 C.3     1  UNL1        0.0386
     41 N         138.2840  141.6345  159.5831 N.3     1  UNL1       -0.2751
     42 C         137.6604  143.5458  162.8274 C.3     1  UNL1        0.0718
     43 C         137.9788  142.2180  163.4481 C.ar    1  UNL1        0.1207
     44 N         138.1020  141.5818  164.8009 N.ar    1  UNL1       -0.2309
     45 C         138.4717  140.1414  164.6039 C.ar    1  UNL1        0.0983
     46 C         138.7260  139.0284  165.5767 C.ar    1  UNL1        0.0206
     47 C         139.0856  137.6613  165.0749 C.ar    1  UNL1        0.0016
     48 C         139.1908  137.4073  163.6003 C.ar    1  UNL1        0.0016
     49 C         138.9365  138.5204  162.6275 C.ar    1  UNL1        0.0188
     50 C         138.5769  139.8874  163.1293 C.ar    1  UNL1        0.0785
     51 N         138.2723  141.1708  162.4150 N.ar    1  UNL1       -0.3167
@<TRIPOS>BOND
     1    42    43    1
     2    43    44   ar
     3    44    45   ar
     4    45    46   ar
     5    46    47   ar
     6    47    48   ar
     7    48    49   ar
     8    49    50   ar
     9    50    51   ar
    10    51    34    1
    11    34    35    1
    12    35    36    1
    13    36    37    1
    14    37    38    1
    15    38    39    1
    16    39    40    1
    17    39    41    1
    18    41    33    1
    19    33    32    1
    20    32     1    1
    21     1    25    1
    22    25    26   ar
    23    26    27   ar
    24    27    28   ar
    25    28    29   ar
    26    29    30    1
    27    29    31   ar
    28     1     2    1
    29     2     3    1
    30     3     4    1
    31     4     5   am
    32     5     6    2
    33     5     9    1
    34     9    10   ar
    35    10    11   ar
    36    11    17    1
    37    17    19    1
    38    19    20    2
    39    19    21    2
    40    19    22    1
    41    22    23    1
    42    22    24    1
    43    11    12   ar
    44    12    13    1
    45    12    14   ar
    46    14    15   ar
    47    15    16    1
    48     4     7    1
    49     7     8    1
    50    51    43   ar
    51    40    34    1
    52     8     1    1
    53    50    45   ar
    54    41    36    1
    55    31    25   ar
    56    15     9   ar
    57    17    18    1
@<TRIPOS>MOLECULE
*****
 51 57 0 0 0
SMALL
GASTEIGER

@<TRIPOS>ATOM
      1 C         141.6648  141.8671  164.9089 C.3     1  UNL1        0.0236
      2 C         141.7162  140.9552  163.7191 C.3     1  UNL1        0.0257
      3 C         141.8084  141.5303  162.3368 C.3     1  UNL1        0.0940
      4 N         141.8492  143.0174  162.1443 N.am    1  UNL1       -0.2760
      5 C         141.9414  143.5925  160.7620 C.2     1  UNL1        0.2512
      6 O         141.9822  145.0795  160.5695 O.2     1  UNL1       -0.2698
      7 C         141.7979  143.9293  163.3342 C.3     1  UNL1        0.0940
      8 C         141.7057  143.3542  164.7164 C.3     1  UNL1        0.0257
      9 C         141.9927  142.6805  159.5722 C.ar    1  UNL1        0.0824
     10 C         143.2684  141.9720  159.2247 C.ar    1  UNL1        0.0249
     11 C         143.3196  141.0600  158.0349 C.ar    1  UNL1        0.0921
     12 C         142.0953  140.8565  157.1926 C.ar    1  UNL1        0.1568
     13 F         142.1466  139.9445  156.0028 F       1  UNL1       -0.2027
     14 C         140.8196  141.5651  157.5400 C.ar    1  UNL1        0.0607
     15 C         140.7684  142.4770  158.7298 C.ar    1  UNL1        0.1468
     16 F         139.4927  143.1856  159.0773 F       1  UNL1       -0.2039
     17 N         144.5953  140.3515  157.6874 N.pl3   1  UNL1       -0.2166
     18 H         144.9334  139.6328  158.2692 H       1  UNL1        0.1734
     19 S         145.3558  140.7380  156.4536 S.O2    1  UNL1        0.0523
     20 O         145.2149  139.3398  155.9288 O.2     1  UNL1       -0.1545
     21 O         145.4966  142.1360  156.9784 O.2     1  UNL1       -0.1545
     22 C         146.1163  141.1245  155.2198 C.3     1  UNL1        0.1489
     23 C         147.3527  141.9661  155.3338 C.3     1  UNL1        0.0273
     24 C         145.6405  140.6694  153.8721 C.3     1  UNL1        0.0273
     25 C         141.5903  142.3170  166.3380 C.ar    1  UNL1       -0.0204
     26 C         140.3245  142.9217  166.8689 C.ar    1  UNL1       -0.0041
     27 C         140.2500  143.3715  168.2980 C.ar    1  UNL1        0.0020
     28 C         141.4414  143.2165  169.1961 C.ar    1  UNL1        0.0296
     29 C         142.7072  142.6117  168.6652 C.ar    1  UNL1        0.1398
     30 F         143.8985  142.4567  169.5633 F       1  UNL1       -0.2042
     31 C         142.7816  142.1619  167.2361 C.ar    1  UNL1        0.0254
     32 C         141.5981  140.5364  165.5977 C.3     1  UNL1        0.0215
     33 C         140.3708  139.6841  165.4656 C.3     1  UNL1        0.0723
     34 C         140.3137  139.6499  165.3234 C.3     1  UNL1        0.0893
     35 C         139.3110  140.7422  165.5506 C.3     1  UNL1        0.0386
     36 C         138.2907  141.0548  164.4964 C.3     1  UNL1        0.0594
     37 C         137.4960  141.0182  163.2247 C.3     1  UNL1        0.0174
     38 C         138.0648  139.9374  162.3538 C.3     1  UNL1        0.0174
     39 C         139.2109  139.3061  163.0872 C.3     1  UNL1        0.0594
     40 C         140.2960  138.8703  164.0421 C.3     1  UNL1        0.0386
     41 N         139.3505  139.9967  164.4115 N.3     1  UNL1       -0.2751
     42 C         142.9875  138.5869  164.6781 C.3     1  UNL1        0.0718
     43 C         142.7122  138.7960  166.1377 C.ar    1  UNL1        0.1207
     44 N         143.3852  138.6353  167.4686 N.ar    1  UNL1       -0.2309
     45 C         142.4229  139.0773  168.5310 C.ar    1  UNL1        0.0983
     46 C         142.5372  139.1407  170.0253 C.ar    1  UNL1        0.0206
     47 C         141.3838  139.6379  170.8452 C.ar    1  UNL1        0.0016
     48 C         140.1161  140.0718  170.1709 C.ar    1  UNL1        0.0016
     49 C         140.0018  140.0084  168.6767 C.ar    1  UNL1        0.0188
     50 C         141.1552  139.5111  167.8567 C.ar    1  UNL1        0.0785
     51 N         141.3340  139.3373  166.3776 N.ar    1  UNL1       -0.3167
@<TRIPOS>BOND
     1    42    43    1
     2    43    44   ar
     3    44    45   ar
     4    45    46   ar
     5    46    47   ar
     6    47    48   ar
     7    48    49   ar
     8    49    50   ar
     9    50    51   ar
    10    51    34    1
    11    34    35    1
    12    35    36    1
    13    36    37    1
    14    37    38    1
    15    38    39    1
    16    39    40    1
    17    39    41    1
    18    41    33    1
    19    33    32    1
    20    32     1    1
    21     1    25    1
    22    25    26   ar
    23    26    27   ar
    24    27    28   ar
    25    28    29   ar
    26    29    30    1
    27    29    31   ar
    28     1     2    1
    29     2     3    1
    30     3     4    1
    31     4     5   am
    32     5     6    2
    33     5     9    1
    34     9    10   ar
    35    10    11   ar
    36    11    17    1
    37    17    19    1
    38    19    20    2
    39    19    21    2
    40    19    22    1
    41    22    23    1
    42    22    24    1
    43    11    12   ar
    44    12    13    1
    45    12    14   ar
    46    14    15   ar
    47    15    16    1
    48     4     7    1
    49     7     8    1
    50    51    43   ar
    51    40    34    1
    52     8     1    1
    53    50    45   ar
    54    41    36    1
    55    31    25   ar
    56    15     9   ar
    57    17    18    1
@<TRIPOS>MOLECULE
*****
 51 57 0 0 0
SMALL
GASTEIGER

@<TRIPOS>ATOM
      1 C         140.4412  141.3591  161.3839 C.3     1  UNL1        0.0236
      2 C         141.7006  141.0171  160.6443 C.3     1  UNL1        0.0257
      3 C         141.6288  140.2646  159.3487 C.3     1  UNL1        0.0940
      4 N         140.2975  139.8541  158.7926 N.am    1  UNL1       -0.2760
      5 C         140.2257  139.1016  157.4970 C.2     1  UNL1        0.2512
      6 O         138.8945  138.6910  156.9409 O.2     1  UNL1       -0.2698
      7 C         139.0381  140.1960  159.5322 C.3     1  UNL1        0.0940
      8 C         139.1099  140.9484  160.8277 C.3     1  UNL1        0.0257
      9 C         141.4852  138.7597  156.7575 C.ar    1  UNL1        0.0824
     10 C         142.1503  137.4340  156.9818 C.ar    1  UNL1        0.0249
     11 C         143.4098  137.0923  156.2422 C.ar    1  UNL1        0.0921
     12 C         144.0042  138.0761  155.2785 C.ar    1  UNL1        0.1568
     13 F         145.2637  137.7342  154.5390 F       1  UNL1       -0.2027
     14 C         143.3391  139.4018  155.0543 C.ar    1  UNL1        0.0607
     15 C         142.0796  139.7435  155.7938 C.ar    1  UNL1        0.1468
     16 F         141.4145  141.0692  155.5696 F       1  UNL1       -0.2039
     17 N         144.0749  135.7666  156.4665 N.pl3   1  UNL1       -0.2166
     18 H         145.0258  135.7294  156.7190 H       1  UNL1        0.1734
     19 S         143.2914  134.4977  156.3059 S.O2    1  UNL1        0.0523
     20 O         143.4391  134.2208  157.7727 O.2     1  UNL1       -0.1545
     21 O         143.1436  134.7745  154.8391 O.2     1  UNL1       -0.1545
     22 C         142.5078  133.2287  156.1453 C.3     1  UNL1        0.1489
     23 C         141.2877  133.2060  155.2730 C.3     1  UNL1        0.0273
     24 C         142.9442  131.9825  156.8569 C.3     1  UNL1        0.0273
     25 C         139.5346  141.9100  162.4445 C.ar    1  UNL1       -0.0204
     26 C         139.4350  141.2257  163.7755 C.ar    1  UNL1       -0.0041
     27 C         138.5285  141.7767  164.8361 C.ar    1  UNL1        0.0020
     28 C         137.7217  143.0119  164.5655 C.ar    1  UNL1        0.0296
     29 C         137.8213  143.6962  163.2343 C.ar    1  UNL1        0.1398
     30 F         137.0144  144.9313  162.9638 F       1  UNL1       -0.2042
     31 C         138.7278  143.1451  162.1739 C.ar    1  UNL1        0.0254
     32 C         141.4575  141.9610  162.3082 C.3     1  UNL1        0.0215
     33 C         142.2296  143.1756  161.8855 C.3     1  UNL1        0.0723
     34 C         142.2999  143.1759  161.7452 C.3     1  UNL1        0.0893
     35 C         141.1511  144.0093  161.2596 C.3     1  UNL1        0.0386
     36 C         141.1072  144.4666  159.8316 C.3     1  UNL1        0.0594
     37 C         141.4674  144.6857  158.3921 C.3     1  UNL1        0.0174
     38 C         142.7685  143.9874  158.1284 C.3     1  UNL1        0.0174
     39 C         143.2124  143.3367  159.4050 C.3     1  UNL1        0.0594
     40 C         143.4046  142.7999  160.8029 C.3     1  UNL1        0.0386
     41 N         142.1856  143.6329  160.4577 N.3     1  UNL1       -0.2751
     42 C         141.2768  144.8192  163.9697 C.3     1  UNL1        0.0718
     43 C         141.8475  143.4883  164.3611 C.ar    1  UNL1        0.1207
     44 N         142.0888  142.6567  165.5859 N.ar    1  UNL1       -0.2309
     45 C         142.7343  141.3731  165.1550 C.ar    1  UNL1        0.0983
     46 C         143.1989  140.1744  165.9278 C.ar    1  UNL1        0.0206
     47 C         143.8211  139.0140  165.2093 C.ar    1  UNL1        0.0016
     48 C         143.9788  139.0523  163.7181 C.ar    1  UNL1        0.0016
     49 C         143.5142  140.2510  162.9454 C.ar    1  UNL1        0.0188
     50 C         142.8920  141.4114  163.6638 C.ar    1  UNL1        0.0785
     51 N         142.3439  142.7186  163.1731 N.ar    1  UNL1       -0.3167
@<TRIPOS>BOND
     1    42    43    1
     2    43    44   ar
     3    44    45   ar
     4    45    46   ar
     5    46    47   ar
     6    47    48   ar
     7    48    49   ar
     8    49    50   ar
     9    50    51   ar
    10    51    34    1
    11    34    35    1
    12    35    36    1
    13    36    37    1
    14    37    38    1
    15    38    39    1
    16    39    40    1
    17    39    41    1
    18    41    33    1
    19    33    32    1
    20    32     1    1
    21     1    25    1
    22    25    26   ar
    23    26    27   ar
    24    27    28   ar
    25    28    29   ar
    26    29    30    1
    27    29    31   ar
    28     1     2    1
    29     2     3    1
    30     3     4    1
    31     4     5   am
    32     5     6    2
    33     5     9    1
    34     9    10   ar
    35    10    11   ar
    36    11    17    1
    37    17    19    1
    38    19    20    2
    39    19    21    2
    40    19    22    1
    41    22    23    1
    42    22    24    1
    43    11    12   ar
    44    12    13    1
    45    12    14   ar
    46    14    15   ar
    47    15    16    1
    48     4     7    1
    49     7     8    1
    50    51    43   ar
    51    40    34    1
    52     8     1    1
    53    50    45   ar
    54    41    36    1
    55    31    25   ar
    56    15     9   ar
    57    17    18    1
@<TRIPOS>MOLECULE
*****
 51 57 0 0 0
SMALL
GASTEIGER

@<TRIPOS>ATOM
      1 C         141.6465  141.7895  164.9063 C.3     1  UNL1        0.0236
      2 C         141.6778  140.8473  163.7395 C.3     1  UNL1        0.0257
      3 C         141.7578  141.3865  162.3420 C.3     1  UNL1        0.0940
      4 N         141.8066  142.8678  162.1113 N.am    1  UNL1       -0.2760
      5 C         141.8867  143.4070  160.7138 C.2     1  UNL1        0.2512
      6 O         141.9354  144.8883  160.4831 O.2     1  UNL1       -0.2698
      7 C         141.7753  143.8100  163.2781 C.3     1  UNL1        0.0940
      8 C         141.6953  143.2709  164.6755 C.3     1  UNL1        0.0257
      9 C         141.9179  142.4647  159.5472 C.ar    1  UNL1        0.0824
     10 C         140.6760  141.7250  159.1470 C.ar    1  UNL1        0.0249
     11 C         140.7073  140.7827  157.9803 C.ar    1  UNL1        0.0921
     12 C         141.9807  140.5803  157.2137 C.ar    1  UNL1        0.1568
     13 F         142.0120  139.6380  156.0470 F       1  UNL1       -0.2027
     14 C         143.2227  141.3201  157.6139 C.ar    1  UNL1        0.0607
     15 C         143.1913  142.2623  158.7806 C.ar    1  UNL1        0.1468
     16 F         144.4333  143.0021  159.1808 F       1  UNL1       -0.2039
     17 N         139.4653  140.0429  157.5801 N.pl3   1  UNL1       -0.2166
     18 H         139.4368  139.0606  157.6396 H       1  UNL1        0.1734
     19 S         138.2668  140.7998  157.0893 S.O2    1  UNL1        0.0523
     20 O         139.0347  141.2274  155.8737 O.2     1  UNL1       -0.1545
     21 O         137.4990  140.3722  158.3048 O.2     1  UNL1       -0.1545
     22 C         137.0684  141.5566  156.5985 C.3     1  UNL1        0.1489
     23 C         135.7753  140.8367  156.3539 C.3     1  UNL1        0.0273
     24 C         137.1629  143.0332  156.3524 C.3     1  UNL1        0.0273
     25 C         141.5916  142.2760  166.3242 C.ar    1  UNL1       -0.0204
     26 C         140.3369  142.9048  166.8534 C.ar    1  UNL1       -0.0041
     27 C         140.2820  143.3913  168.2713 C.ar    1  UNL1        0.0020
     28 C         141.4821  143.2488  169.1599 C.ar    1  UNL1        0.0296
     29 C         142.7369  142.6200  168.6307 C.ar    1  UNL1        0.1398
     30 F         143.9368  142.4776  169.5194 F       1  UNL1       -0.2042
     31 C         142.7916  142.1335  167.2128 C.ar    1  UNL1        0.0254
     32 C         141.5787  140.4772  165.6294 C.3     1  UNL1        0.0215
     33 C         140.3528  139.6202  165.5150 C.3     1  UNL1        0.0723
     34 C         140.2967  139.5808  165.3738 C.3     1  UNL1        0.0893
     35 C         139.2965  140.6846  165.5509 C.3     1  UNL1        0.0386
     36 C         138.2860  140.9604  164.4772 C.3     1  UNL1        0.0594
     37 C         137.5016  140.8781  163.2012 C.3     1  UNL1        0.0174
     38 C         138.0732  139.7629  162.3769 C.3     1  UNL1        0.0174
     39 C         139.2108  139.1559  163.1433 C.3     1  UNL1        0.0594
     40 C         140.2864  138.7530  164.1231 C.3     1  UNL1        0.0386
     41 N         139.3424  139.8960  164.4414 N.3     1  UNL1       -0.2751
     42 C         142.9813  138.5100  164.7890 C.3     1  UNL1        0.0718
     43 C         142.6900  138.7625  166.2386 C.ar    1  UNL1        0.1207
     44 N         143.3496  138.6455  167.5807 N.ar    1  UNL1       -0.2309
     45 C         142.3745  139.1157  168.6191 C.ar    1  UNL1        0.0983
     46 C         142.4730  139.2253  170.1118 C.ar    1  UNL1        0.0206
     47 C         141.3092  139.7425  170.9042 C.ar    1  UNL1        0.0016
     48 C         140.0468  140.1500  170.2038 C.ar    1  UNL1        0.0016
     49 C         139.9484  140.0404  168.7111 C.ar    1  UNL1        0.0188
     50 C         141.1122  139.5232  167.9187 C.ar    1  UNL1        0.0785
     51 N         141.3072  139.3050  166.4476 N.ar    1  UNL1       -0.3167
@<TRIPOS>BOND
     1    42    43    1
     2    43    44   ar
     3    44    45   ar
     4    45    46   ar
     5    46    47   ar
     6    47    48   ar
     7    48    49   ar
     8    49    50   ar
     9    50    51   ar
    10    51    34    1
    11    34    35    1
    12    35    36    1
    13    36    37    1
    14    37    38    1
    15    38    39    1
    16    39    40    1
    17    39    41    1
    18    41    33    1
    19    33    32    1
    20    32     1    1
    21     1    25    1
    22    25    26   ar
    23    26    27   ar
    24    27    28   ar
    25    28    29   ar
    26    29    30    1
    27    29    31   ar
    28     1     2    1
    29     2     3    1
    30     3     4    1
    31     4     5   am
    32     5     6    2
    33     5     9    1
    34     9    10   ar
    35    10    11   ar
    36    11    17    1
    37    17    19    1
    38    19    20    2
    39    19    21    2
    40    19    22    1
    41    22    23    1
    42    22    24    1
    43    11    12   ar
    44    12    13    1
    45    12    14   ar
    46    14    15   ar
    47    15    16    1
    48     4     7    1
    49     7     8    1
    50    51    43   ar
    51    40    34    1
    52     8     1    1
    53    50    45   ar
    54    41    36    1
    55    31    25   ar
    56    15     9   ar
    57    17    18    1
@<TRIPOS>MOLECULE
*****
 51 57 0 0 0
SMALL
GASTEIGER

@<TRIPOS>ATOM
      1 C         141.8434  141.2384  161.6429 C.3     1  UNL1        0.0236
      2 C         140.8120  140.5639  160.7878 C.3     1  UNL1        0.0257
      3 C         141.2057  139.9638  159.4706 C.3     1  UNL1        0.0940
      4 N         142.6308  140.0383  159.0085 N.am    1  UNL1       -0.2760
      5 C         143.0245  139.4383  157.6913 C.2     1  UNL1        0.2512
      6 O         144.4496  139.5128  157.2292 O.2     1  UNL1       -0.2698
      7 C         143.6622  140.7129  159.8636 C.3     1  UNL1        0.0940
      8 C         143.2686  141.3129  161.1807 C.3     1  UNL1        0.0257
      9 C         141.9930  138.7638  156.8362 C.ar    1  UNL1        0.0824
     10 C         141.0679  139.5854  155.9882 C.ar    1  UNL1        0.0249
     11 C         140.0365  138.9107  155.1332 C.ar    1  UNL1        0.0921
     12 C         139.9301  137.4145  155.1263 C.ar    1  UNL1        0.1568
     13 F         138.8987  136.7400  154.2712 F       1  UNL1       -0.2027
     14 C         140.8552  136.5929  155.9743 C.ar    1  UNL1        0.0607
     15 C         141.8866  137.2675  156.8293 C.ar    1  UNL1        0.1468
     16 F         142.8117  136.4459  157.6774 F       1  UNL1       -0.2039
     17 N         139.1114  139.7323  154.2851 N.pl3   1  UNL1       -0.2166
     18 H         139.1600  139.6726  153.3037 H       1  UNL1        0.1734
     19 S         138.1123  140.6449  154.9325 S.O2    1  UNL1        0.0523
     20 O         137.3349  139.4546  155.4108 O.2     1  UNL1       -0.1545
     21 O         138.8897  141.8352  154.4543 O.2     1  UNL1       -0.1545
     22 C         137.1133  141.5575  155.5799 C.3     1  UNL1        0.1489
     23 C         136.2403  141.0482  156.6882 C.3     1  UNL1        0.0273
     24 C         136.9871  142.9793  155.1189 C.3     1  UNL1        0.0273
     25 C         142.4536  141.9761  162.7977 C.ar    1  UNL1       -0.0204
     26 C         142.6360  141.2854  164.1166 C.ar    1  UNL1       -0.0041
     27 C         143.2462  142.0231  165.2715 C.ar    1  UNL1        0.0020
     28 C         143.6738  143.4514  165.1073 C.ar    1  UNL1        0.0296
     29 C         143.4913  144.1421  163.7883 C.ar    1  UNL1        0.1398
     30 F         143.9189  145.5704  163.6242 F       1  UNL1       -0.2042
     31 C         142.8812  143.4044  162.6335 C.ar    1  UNL1        0.0254
     32 C         140.6303  141.4201  162.5060 C.3     1  UNL1        0.0215
     33 C         139.5314  142.3438  162.0706 C.3     1  UNL1        0.0723
     34 C         139.4735  142.3351  161.9249 C.3     1  UNL1        0.0893
     35 C         140.3557  143.5014  161.5904 C.3     1  UNL1        0.0386
     36 C         140.3572  144.0663  160.2008 C.3     1  UNL1        0.0594
     37 C         140.0442  144.2882  158.7507 C.3     1  UNL1        0.0174
     38 C         139.0265  143.2678  158.3348 C.3     1  UNL1        0.0174
     39 C         138.7105  142.4152  159.5277 C.3     1  UNL1        0.0594
     40 C         138.5930  141.7340  160.8699 C.3     1  UNL1        0.0386
     41 N         139.5330  142.9087  160.6811 N.3     1  UNL1       -0.2751
     42 C         139.8002  144.0198  164.3230 C.3     1  UNL1        0.0718
     43 C         139.6314  142.5525  164.5844 C.ar    1  UNL1        0.1207
     44 N         139.5687  141.5895  165.7328 N.ar    1  UNL1       -0.2309
     45 C         139.3705  140.2122  165.1727 C.ar    1  UNL1        0.0983
     46 C         139.2368  138.8708  165.8305 C.ar    1  UNL1        0.0206
     47 C         139.0433  137.6411  164.9937 C.ar    1  UNL1        0.0016
     48 C         138.9835  137.7528  163.4990 C.ar    1  UNL1        0.0016
     49 C         139.1173  139.0942  162.8412 C.ar    1  UNL1        0.0188
     50 C         139.3108  140.3239  163.6781 C.ar    1  UNL1        0.0785
     51 N         139.4720  141.7702  163.3145 N.ar    1  UNL1       -0.3167
@<TRIPOS>BOND
     1    42    43    1
     2    43    44   ar
     3    44    45   ar
     4    45    46   ar
     5    46    47   ar
     6    47    48   ar
     7    48    49   ar
     8    49    50   ar
     9    50    51   ar
    10    51    34    1
    11    34    35    1
    12    35    36    1
    13    36    37    1
    14    37    38    1
    15    38    39    1
    16    39    40    1
    17    39    41    1
    18    41    33    1
    19    33    32    1
    20    32     1    1
    21     1    25    1
    22    25    26   ar
    23    26    27   ar
    24    27    28   ar
    25    28    29   ar
    26    29    30    1
    27    29    31   ar
    28     1     2    1
    29     2     3    1
    30     3     4    1
    31     4     5   am
    32     5     6    2
    33     5     9    1
    34     9    10   ar
    35    10    11   ar
    36    11    17    1
    37    17    19    1
    38    19    20    2
    39    19    21    2
    40    19    22    1
    41    22    23    1
    42    22    24    1
    43    11    12   ar
    44    12    13    1
    45    12    14   ar
    46    14    15   ar
    47    15    16    1
    48     4     7    1
    49     7     8    1
    50    51    43   ar
    51    40    34    1
    52     8     1    1
    53    50    45   ar
    54    41    36    1
    55    31    25   ar
    56    15     9   ar
    57    17    18    1
@<TRIPOS>MOLECULE
*****
 51 57 0 0 0
SMALL
GASTEIGER

@<TRIPOS>ATOM
      1 C         140.8573  141.1226  161.1070 C.3     1  UNL1        0.0236
      2 C         140.2318  140.0464  160.2700 C.3     1  UNL1        0.0257
      3 C         140.9939  139.4491  159.1243 C.3     1  UNL1        0.0940
      4 N         142.3814  139.9280  158.8156 N.am    1  UNL1       -0.2760
      5 C         143.1435  139.3308  157.6699 C.2     1  UNL1        0.2512
      6 O         144.5311  139.8097  157.3613 O.2     1  UNL1       -0.2698
      7 C         143.0069  141.0042  159.6526 C.3     1  UNL1        0.0940
      8 C         142.2449  141.6015  160.7982 C.3     1  UNL1        0.0257
      9 C         142.5179  138.2546  156.8330 C.ar    1  UNL1        0.0824
     10 C         141.8102  138.6110  155.5594 C.ar    1  UNL1        0.0249
     11 C         141.1847  137.5348  154.7225 C.ar    1  UNL1        0.0921
     12 C         141.2668  136.1021  155.1592 C.ar    1  UNL1        0.1568
     13 F         140.6413  135.0259  154.3223 F       1  UNL1       -0.2027
     14 C         141.9745  135.7457  156.4328 C.ar    1  UNL1        0.0607
     15 C         142.6001  136.8219  157.2697 C.ar    1  UNL1        0.1468
     16 F         143.3078  136.4655  158.5433 F       1  UNL1       -0.2039
     17 N         140.4770  137.8912  153.4489 N.pl3   1  UNL1       -0.2166
     18 H         140.9749  138.3090  152.7094 H       1  UNL1        0.1734
     19 S         139.0107  137.6111  153.3019 S.O2    1  UNL1        0.0523
     20 O         139.2958  136.7425  152.1126 O.2     1  UNL1       -0.1545
     21 O         138.7256  138.4796  154.4911 O.2     1  UNL1       -0.1545
     22 C         137.5444  137.3310  153.1550 C.3     1  UNL1        0.1489
     23 C         137.0543  136.4725  152.0268 C.3     1  UNL1        0.0273
     24 C         136.5683  137.9093  154.1361 C.3     1  UNL1        0.0273
     25 C         141.0207  142.1573  162.1807 C.ar    1  UNL1       -0.0204
     26 C         141.2967  141.7351  163.5933 C.ar    1  UNL1       -0.0041
     27 C         141.4600  142.7698  164.6670 C.ar    1  UNL1        0.0020
     28 C         141.3474  144.2266  164.3280 C.ar    1  UNL1        0.0296
     29 C         141.0714  144.6488  162.9153 C.ar    1  UNL1        0.1398
     30 F         140.9588  146.1056  162.5763 F       1  UNL1       -0.2042
     31 C         140.9080  143.6140  161.8417 C.ar    1  UNL1        0.0254
     32 C         139.5265  141.0030  161.7885 C.3     1  UNL1        0.0215
     33 C         138.2771  141.4249  161.0736 C.3     1  UNL1        0.0723
     34 C         138.2453  141.3655  160.9319 C.3     1  UNL1        0.0893
     35 C         138.7653  142.6526  160.3633 C.3     1  UNL1        0.0386
     36 C         138.7854  142.8625  158.8782 C.3     1  UNL1        0.0594
     37 C         138.6226  142.6404  157.4037 C.3     1  UNL1        0.0174
     38 C         138.0338  141.2755  157.2028 C.3     1  UNL1        0.0174
     39 C         137.8327  140.6540  158.5531 C.3     1  UNL1        0.0594
     40 C         137.7455  140.2885  160.0153 C.3     1  UNL1        0.0386
     41 N         138.2972  141.6349  159.5886 N.3     1  UNL1       -0.2751
     42 C         137.6545  143.5401  162.8339 C.3     1  UNL1        0.0718
     43 C         137.9353  142.2023  163.4515 C.ar    1  UNL1        0.1207
     44 N         138.0224  141.5556  164.8022 N.ar    1  UNL1       -0.2309
     45 C         138.3660  140.1093  164.6024 C.ar    1  UNL1        0.0983
     46 C         138.5810  138.9855  165.5723 C.ar    1  UNL1        0.0206
     47 C         138.9214  137.6144  165.0680 C.ar    1  UNL1        0.0016
     48 C         139.0467  137.3671  163.5939 C.ar    1  UNL1        0.0016
     49 C         138.8317  138.4909  162.6240 C.ar    1  UNL1        0.0188
     50 C         138.4914  139.8620  163.1282 C.ar    1  UNL1        0.0785
     51 N         138.2251  141.1556  162.4170 N.ar    1  UNL1       -0.3167
@<TRIPOS>BOND
     1    42    43    1
     2    43    44   ar
     3    44    45   ar
     4    45    46   ar
     5    46    47   ar
     6    47    48   ar
     7    48    49   ar
     8    49    50   ar
     9    50    51   ar
    10    51    34    1
    11    34    35    1
    12    35    36    1
    13    36    37    1
    14    37    38    1
    15    38    39    1
    16    39    40    1
    17    39    41    1
    18    41    33    1
    19    33    32    1
    20    32     1    1
    21     1    25    1
    22    25    26   ar
    23    26    27   ar
    24    27    28   ar
    25    28    29   ar
    26    29    30    1
    27    29    31   ar
    28     1     2    1
    29     2     3    1
    30     3     4    1
    31     4     5   am
    32     5     6    2
    33     5     9    1
    34     9    10   ar
    35    10    11   ar
    36    11    17    1
    37    17    19    1
    38    19    20    2
    39    19    21    2
    40    19    22    1
    41    22    23    1
    42    22    24    1
    43    11    12   ar
    44    12    13    1
    45    12    14   ar
    46    14    15   ar
    47    15    16    1
    48     4     7    1
    49     7     8    1
    50    51    43   ar
    51    40    34    1
    52     8     1    1
    53    50    45   ar
    54    41    36    1
    55    31    25   ar
    56    15     9   ar
    57    17    18    1
@<TRIPOS>MOLECULE
*****
 51 57 0 0 0
SMALL
GASTEIGER

@<TRIPOS>ATOM
      1 C         140.3084  142.3094  161.6291 C.3     1  UNL1        0.0236
      2 C         141.1333  141.7389  160.5137 C.3     1  UNL1        0.0257
      3 C         140.4612  141.1014  159.3339 C.3     1  UNL1        0.0940
      4 N         138.9641  141.0344  159.2695 N.am    1  UNL1       -0.2760
      5 C         138.2919  140.3969  158.0897 C.2     1  UNL1        0.2512
      6 O         136.7948  140.3299  158.0253 O.2     1  UNL1       -0.2698
      7 C         138.1391  141.6049  160.3849 C.3     1  UNL1        0.0940
      8 C         138.8112  142.2423  161.5646 C.3     1  UNL1        0.0257
      9 C         139.1170  139.8265  156.9744 C.ar    1  UNL1        0.0824
     10 C         139.4266  138.3591  156.9452 C.ar    1  UNL1        0.0249
     11 C         140.2517  137.7888  155.8298 C.ar    1  UNL1        0.0921
     12 C         140.7671  138.6858  154.7437 C.ar    1  UNL1        0.1568
     13 F         141.5921  138.1154  153.6284 F       1  UNL1       -0.2027
     14 C         140.4575  140.1532  154.7729 C.ar    1  UNL1        0.0607
     15 C         139.6324  140.7236  155.8883 C.ar    1  UNL1        0.1468
     16 F         139.3228  142.1910  155.9175 F       1  UNL1       -0.2039
     17 N         140.5613  136.3214  155.8006 N.pl3   1  UNL1       -0.2166
     18 H         139.8290  135.6645  155.7612 H       1  UNL1        0.1734
     19 S         141.9866  135.8548  155.8315 S.O2    1  UNL1        0.0523
     20 O         142.1805  136.5349  157.1543 O.2     1  UNL1       -0.1545
     21 O         141.7926  135.1748  154.5087 O.2     1  UNL1       -0.1545
     22 C         143.4118  135.3883  155.8623 C.3     1  UNL1        0.1489
     23 C         143.7403  134.0137  156.3651 C.3     1  UNL1        0.0273
     24 C         144.5086  136.2962  155.3905 C.3     1  UNL1        0.0273
     25 C         139.9614  142.9845  162.9229 C.ar    1  UNL1       -0.0204
     26 C         139.3330  144.3464  162.9132 C.ar    1  UNL1       -0.0041
     27 C         138.9860  145.0216  164.2070 C.ar    1  UNL1        0.0020
     28 C         139.2676  144.3348  165.5104 C.ar    1  UNL1        0.0296
     29 C         139.8961  142.9728  165.5201 C.ar    1  UNL1        0.1398
     30 F         140.1777  142.2860  166.8235 F       1  UNL1       -0.2042
     31 C         140.2430  142.2977  164.2262 C.ar    1  UNL1        0.0254
     32 C         141.6849  142.6109  162.1428 C.3     1  UNL1        0.0215
     33 C         142.5323  143.6415  161.4573 C.3     1  UNL1        0.0723
     34 C         142.5484  143.6419  161.3012 C.3     1  UNL1        0.0893
     35 C         141.4939  144.7084  161.2744 C.3     1  UNL1        0.0386
     36 C         141.0518  145.2932  159.9657 C.3     1  UNL1        0.0594
     37 C         140.9286  145.5732  158.4973 C.3     1  UNL1        0.0174
     38 C         141.8909  144.6793  157.7727 C.3     1  UNL1        0.0174
     39 C         142.6088  143.8469  158.7933 C.3     1  UNL1        0.0594
     40 C         143.1606  143.1602  160.0194 C.3     1  UNL1        0.0386
     41 N         142.0902  144.2263  160.1488 N.3     1  UNL1       -0.2751
     42 C         142.7189  145.2373  163.7753 C.3     1  UNL1        0.0718
     43 C         143.1053  143.7943  163.9111 C.ar    1  UNL1        0.1207
     44 N         143.5812  142.8252  164.9524 N.ar    1  UNL1       -0.2309
     45 C         143.7606  141.4890  164.2947 C.ar    1  UNL1        0.0983
     46 C         144.2091  140.1604  164.8271 C.ar    1  UNL1        0.0206
     47 C         144.2926  138.9751  163.9117 C.ar    1  UNL1        0.0016
     48 C         143.9275  139.1184  162.4639 C.ar    1  UNL1        0.0016
     49 C         143.4790  140.4470  161.9315 C.ar    1  UNL1        0.0188
     50 C         143.3955  141.6324  162.8469 C.ar    1  UNL1        0.0785
     51 N         142.9905  143.0571  162.6098 N.ar    1  UNL1       -0.3167
@<TRIPOS>BOND
     1    42    43    1
     2    43    44   ar
     3    44    45   ar
     4    45    46   ar
     5    46    47   ar
     6    47    48   ar
     7    48    49   ar
     8    49    50   ar
     9    50    51   ar
    10    51    34    1
    11    34    35    1
    12    35    36    1
    13    36    37    1
    14    37    38    1
    15    38    39    1
    16    39    40    1
    17    39    41    1
    18    41    33    1
    19    33    32    1
    20    32     1    1
    21     1    25    1
    22    25    26   ar
    23    26    27   ar
    24    27    28   ar
    25    28    29   ar
    26    29    30    1
    27    29    31   ar
    28     1     2    1
    29     2     3    1
    30     3     4    1
    31     4     5   am
    32     5     6    2
    33     5     9    1
    34     9    10   ar
    35    10    11   ar
    36    11    17    1
    37    17    19    1
    38    19    20    2
    39    19    21    2
    40    19    22    1
    41    22    23    1
    42    22    24    1
    43    11    12   ar
    44    12    13    1
    45    12    14   ar
    46    14    15   ar
    47    15    16    1
    48     4     7    1
    49     7     8    1
    50    51    43   ar
    51    40    34    1
    52     8     1    1
    53    50    45   ar
    54    41    36    1
    55    31    25   ar
    56    15     9   ar
    57    17    18    1
@<TRIPOS>MOLECULE
*****
 51 57 0 0 0
SMALL
GASTEIGER

@<TRIPOS>ATOM
      1 C         142.1727  141.7543  161.5569 C.3     1  UNL1        0.0236
      2 C         141.2106  140.8770  160.8122 C.3     1  UNL1        0.0257
      3 C         141.6424  140.1936  159.5486 C.3     1  UNL1        0.0940
      4 N         143.0363  140.3876  159.0297 N.am    1  UNL1       -0.2760
      5 C         143.4681  139.7043  157.7661 C.2     1  UNL1        0.2512
      6 O         144.8620  139.8983  157.2472 O.2     1  UNL1       -0.2698
      7 C         143.9985  141.2650  159.7744 C.3     1  UNL1        0.0940
      8 C         143.5667  141.9483  161.0379 C.3     1  UNL1        0.0257
      9 C         142.5059  138.8270  157.0215 C.ar    1  UNL1        0.0824
     10 C         142.6996  137.3396  157.0127 C.ar    1  UNL1        0.0249
     11 C         141.7373  136.4623  156.2681 C.ar    1  UNL1        0.0921
     12 C         140.5813  137.0725  155.5323 C.ar    1  UNL1        0.1568
     13 F         139.6191  136.1951  154.7877 F       1  UNL1       -0.2027
     14 C         140.3875  138.5599  155.5412 C.ar    1  UNL1        0.0607
     15 C         141.3498  139.4371  156.2858 C.ar    1  UNL1        0.1468
     16 F         141.1561  140.9245  156.2946 F       1  UNL1       -0.2039
     17 N         141.9311  134.9749  156.2592 N.pl3   1  UNL1       -0.2166
     18 H         141.9601  134.4772  157.1081 H       1  UNL1        0.1734
     19 S         142.0806  134.2458  154.9569 S.O2    1  UNL1        0.0523
     20 O         140.9677  133.3192  155.3478 O.2     1  UNL1       -0.1545
     21 O         143.1936  135.1723  154.5659 O.2     1  UNL1       -0.1545
     22 C         142.2302  133.5167  153.6545 C.3     1  UNL1        0.1489
     23 C         141.7671  134.1566  152.3793 C.3     1  UNL1        0.0273
     24 C         142.8428  132.1478  153.6273 C.3     1  UNL1        0.0273
     25 C         142.7164  142.6755  162.6086 C.ar    1  UNL1       -0.0204
     26 C         143.0319  144.1014  162.2664 C.ar    1  UNL1       -0.0041
     27 C         143.5756  145.0225  163.3181 C.ar    1  UNL1        0.0020
     28 C         143.8038  144.5175  164.7120 C.ar    1  UNL1        0.0296
     29 C         143.4883  143.0915  165.0542 C.ar    1  UNL1        0.1398
     30 F         143.7165  142.5866  166.4481 F       1  UNL1       -0.2042
     31 C         142.9446  142.1705  164.0024 C.ar    1  UNL1        0.0254
     32 C         140.9677  141.8802  162.4410 C.3     1  UNL1        0.0215
     33 C         139.7619  142.6337  161.9628 C.3     1  UNL1        0.0723
     34 C         139.7068  142.6154  161.8170 C.3     1  UNL1        0.0893
     35 C         140.4598  143.8630  161.4609 C.3     1  UNL1        0.0386
     36 C         140.4137  144.3922  160.0581 C.3     1  UNL1        0.0594
     37 C         140.0930  144.5448  158.6008 C.3     1  UNL1        0.0174
     38 C         139.1970  143.4098  158.2020 C.3     1  UNL1        0.0174
     39 C         138.9639  142.5558  159.4129 C.3     1  UNL1        0.0594
     40 C         138.9078  141.8972  160.7703 C.3     1  UNL1        0.0386
     41 N         139.7159  143.1629  160.5601 N.3     1  UNL1       -0.2751
     42 C         139.8959  144.3790  164.1728 C.3     1  UNL1        0.0718
     43 C         139.8485  142.9095  164.4700 C.ar    1  UNL1        0.1207
     44 N         139.8661  141.9729  165.6415 N.ar    1  UNL1       -0.2309
     45 C         139.7814  140.5707  165.1153 C.ar    1  UNL1        0.0983
     46 C         139.7590  139.2393  165.8057 C.ar    1  UNL1        0.0206
     47 C         139.6666  137.9779  164.9993 C.ar    1  UNL1        0.0016
     48 C         139.5966  138.0479  163.5026 C.ar    1  UNL1        0.0016
     49 C         139.6190  139.3794  162.8122 C.ar    1  UNL1        0.0188
     50 C         139.7114  140.6408  163.6186 C.ar    1  UNL1        0.0785
     51 N         139.7529  142.0862  163.2198 N.ar    1  UNL1       -0.3167
@<TRIPOS>BOND
     1    42    43    1
     2    43    44   ar
     3    44    45   ar
     4    45    46   ar
     5    46    47   ar
     6    47    48   ar
     7    48    49   ar
     8    49    50   ar
     9    50    51   ar
    10    51    34    1
    11    34    35    1
    12    35    36    1
    13    36    37    1
    14    37    38    1
    15    38    39    1
    16    39    40    1
    17    39    41    1
    18    41    33    1
    19    33    32    1
    20    32     1    1
    21     1    25    1
    22    25    26   ar
    23    26    27   ar
    24    27    28   ar
    25    28    29   ar
    26    29    30    1
    27    29    31   ar
    28     1     2    1
    29     2     3    1
    30     3     4    1
    31     4     5   am
    32     5     6    2
    33     5     9    1
    34     9    10   ar
    35    10    11   ar
    36    11    17    1
    37    17    19    1
    38    19    20    2
    39    19    21    2
    40    19    22    1
    41    22    23    1
    42    22    24    1
    43    11    12   ar
    44    12    13    1
    45    12    14   ar
    46    14    15   ar
    47    15    16    1
    48     4     7    1
    49     7     8    1
    50    51    43   ar
    51    40    34    1
    52     8     1    1
    53    50    45   ar
    54    41    36    1
    55    31    25   ar
    56    15     9   ar
    57    17    18    1
@<TRIPOS>MOLECULE
*****
 51 57 0 0 0
SMALL
GASTEIGER

@<TRIPOS>ATOM
      1 C         140.8162  139.5927  162.2157 C.3     1  UNL1        0.0236
      2 C         142.0482  139.5309  161.3623 C.3     1  UNL1        0.0257
      3 C         141.9372  139.1744  159.9095 C.3     1  UNL1        0.0940
      4 N         140.5941  138.8797  159.3101 N.am    1  UNL1       -0.2760
      5 C         140.4830  138.5231  157.8573 C.2     1  UNL1        0.2512
      6 O         139.1400  138.2284  157.2579 O.2     1  UNL1       -0.2698
      7 C         139.3621  138.9414  160.1635 C.3     1  UNL1        0.0940
      8 C         139.4731  139.2979  161.6162 C.3     1  UNL1        0.0257
      9 C         141.7151  138.4614  157.0040 C.ar    1  UNL1        0.0824
     10 C         142.3560  137.1382  156.7066 C.ar    1  UNL1        0.0249
     11 C         143.5881  137.0766  155.8532 C.ar    1  UNL1        0.0921
     12 C         144.1793  138.3381  155.2973 C.ar    1  UNL1        0.1568
     13 F         145.4113  138.2763  154.4439 F       1  UNL1       -0.2027
     14 C         143.5384  139.6613  155.5947 C.ar    1  UNL1        0.0607
     15 C         142.3063  139.7229  156.4480 C.ar    1  UNL1        0.1468
     16 F         141.6654  141.0461  156.7454 F       1  UNL1       -0.2039
     17 N         144.2290  135.7534  155.5559 N.pl3   1  UNL1       -0.2166
     18 H         145.1636  135.7171  155.2487 H       1  UNL1        0.1734
     19 S         143.4458  134.4855  155.7264 S.O2    1  UNL1        0.0523
     20 O         144.0772  134.2763  157.0709 O.2     1  UNL1       -0.1545
     21 O         142.8144  134.6946  154.3820 O.2     1  UNL1       -0.1545
     22 C         142.6626  133.2176  155.8970 C.3     1  UNL1        0.1489
     23 C         141.4328  132.9790  155.0719 C.3     1  UNL1        0.0273
     24 C         143.1091  132.1883  156.8925 C.3     1  UNL1        0.0273
     25 C         139.9455  139.7793  163.4229 C.ar    1  UNL1       -0.0204
     26 C         139.9424  138.7479  164.5120 C.ar    1  UNL1       -0.0041
     27 C         139.0717  138.9346  165.7191 C.ar    1  UNL1        0.0020
     28 C         138.2043  140.1526  165.8371 C.ar    1  UNL1        0.0296
     29 C         138.2075  141.1841  164.7479 C.ar    1  UNL1        0.1398
     30 F         137.3401  142.4020  164.8659 F       1  UNL1       -0.2042
     31 C         139.0782  140.9973  163.5408 C.ar    1  UNL1        0.0254
     32 C         141.8569  139.9522  163.2343 C.3     1  UNL1        0.0215
     33 C         142.5817  141.2619  163.1360 C.3     1  UNL1        0.0723
     34 C         142.6410  141.3112  162.9993 C.3     1  UNL1        0.0893
     35 C         141.4077  142.1536  162.8594 C.3     1  UNL1        0.0386
     36 C         141.2261  143.0225  161.6502 C.3     1  UNL1        0.0594
     37 C         141.4610  143.7033  160.3344 C.3     1  UNL1        0.0174
     38 C         142.7802  143.2322  159.7978 C.3     1  UNL1        0.0174
     39 C         143.3606  142.2604  160.7820 C.3     1  UNL1        0.0594
     40 C         143.6925  141.3378  161.9300 C.3     1  UNL1        0.0386
     41 N         142.4001  142.1307  161.9269 N.3     1  UNL1       -0.2751
     42 C         144.1636  138.7870  162.9252 C.3     1  UNL1        0.0718
     43 C         143.5789  139.1480  164.2586 C.ar    1  UNL1        0.1207
     44 N         143.5035  138.6211  165.6609 N.ar    1  UNL1       -0.2309
     45 C         142.7005  139.5897  166.4775 C.ar    1  UNL1        0.0983
     46 C         142.2981  139.5922  167.9225 C.ar    1  UNL1        0.0206
     47 C         141.4750  140.7204  168.4699 C.ar    1  UNL1        0.0016
     48 C         141.0542  141.8461  167.5722 C.ar    1  UNL1        0.0016
     49 C         141.4565  141.8436  166.1272 C.ar    1  UNL1        0.0188
     50 C         142.2797  140.7154  165.5799 C.ar    1  UNL1        0.0785
     51 N         142.8226  140.4424  164.2085 N.ar    1  UNL1       -0.3167
@<TRIPOS>BOND
     1    42    43    1
     2    43    44   ar
     3    44    45   ar
     4    45    46   ar
     5    46    47   ar
     6    47    48   ar
     7    48    49   ar
     8    49    50   ar
     9    50    51   ar
    10    51    34    1
    11    34    35    1
    12    35    36    1
    13    36    37    1
    14    37    38    1
    15    38    39    1
    16    39    40    1
    17    39    41    1
    18    41    33    1
    19    33    32    1
    20    32     1    1
    21     1    25    1
    22    25    26   ar
    23    26    27   ar
    24    27    28   ar
    25    28    29   ar
    26    29    30    1
    27    29    31   ar
    28     1     2    1
    29     2     3    1
    30     3     4    1
    31     4     5   am
    32     5     6    2
    33     5     9    1
    34     9    10   ar
    35    10    11   ar
    36    11    17    1
    37    17    19    1
    38    19    20    2
    39    19    21    2
    40    19    22    1
    41    22    23    1
    42    22    24    1
    43    11    12   ar
    44    12    13    1
    45    12    14   ar
    46    14    15   ar
    47    15    16    1
    48     4     7    1
    49     7     8    1
    50    51    43   ar
    51    40    34    1
    52     8     1    1
    53    50    45   ar
    54    41    36    1
    55    31    25   ar
    56    15     9   ar
    57    17    18    1
