@<TRIPOS>MOLECULE
*****
 26 28 0 0 0
SMALL
GASTEIGER

@<TRIPOS>ATOM
      1 C         139.9304  140.6657  170.3007 C.3     1  UNL1        0.0117
      2 C         140.4843  140.2983  168.9561 C.3     1  UNL1        0.1022
      3 C         139.5575  139.8924  167.8486 C.ar    1  UNL1        0.2379
      4 N         139.7151  140.2354  166.3969 N.ar    1  UNL1       -0.1907
      5 C         138.5655  139.6273  165.6495 C.ar    1  UNL1        0.2041
      6 N         137.6974  138.9085  166.6393 N.ar    1  UNL1       -0.0560
      7 O         138.3105  139.0723  167.9985 O.2     1  UNL1       -0.3370
      8 C         138.3259  139.7215  164.1717 C.ar    1  UNL1        0.0497
      9 C         138.5475  138.5225  163.2981 C.ar    1  UNL1        0.0049
     10 C         138.3080  138.6167  161.8204 C.ar    1  UNL1        0.0115
     11 C         137.8468  139.9099  161.2163 C.ar    1  UNL1        0.0585
     12 CL        137.6073  140.0041  159.7385 Cl      1  UNL1       -0.0822
     13 C         137.6253  141.1089  162.0899 C.ar    1  UNL1        0.0229
     14 C         137.8648  141.0147  163.5676 C.ar    1  UNL1        0.0615
     15 CL        137.6432  142.2138  164.4413 Cl      1  UNL1       -0.0821
     16 C         141.9649  140.3367  168.7188 C.3     1  UNL1        0.1374
     17 N         142.8029  139.1273  169.0111 N.3     1  UNL1       -0.3146
     18 H         142.2069  138.3772  169.3611 H       1  UNL1        0.1192
     19 H         143.5036  139.3611  169.7145 H       1  UNL1        0.1192
     20 C         142.6075  141.5843  168.1895 C.2     1  UNL1        0.2402
     21 O         142.7451  142.7895  169.0719 O.2     1  UNL1       -0.2734
     22 N         143.1127  141.6269  166.7777 N.am    1  UNL1       -0.2785
     23 C         143.0451  140.5062  165.7830 C.3     1  UNL1        0.0935
     24 C         143.6647  140.9843  164.5034 C.3     1  UNL1        0.0233
     25 C         144.1152  142.4004  164.7072 C.3     1  UNL1        0.0233
     26 C         143.7740  142.7976  166.1128 C.3     1  UNL1        0.0935
@<TRIPOS>BOND
     1     2     1    1
     2     2     3    1
     3     3     4   ar
     4     4     5   ar
     5     5     8    1
     6     8     9   ar
     7     9    10   ar
     8    10    11   ar
     9    11    12    1
    10    11    13   ar
    11    13    14   ar
    12    14    15    1
    13     5     6   ar
    14     6     7   ar
    15     2    16    1
    16    16    17    1
    17    16    20    1
    18    20    21    2
    19    20    22   am
    20    22    23    1
    21    23    24    1
    22    24    25    1
    23    25    26    1
    24     7     3   ar
    25    26    22    1
    26    14     8   ar
    27    17    18    1
    28    17    19    1
@<TRIPOS>MOLECULE
*****
 26 28 0 0 0
SMALL
GASTEIGER

@<TRIPOS>ATOM
      1 C         138.8338  137.4910  163.7320 C.3     1  UNL1        0.0117
      2 C         138.8323  138.9419  164.1124 C.3     1  UNL1        0.1022
      3 C         139.0806  139.3442  165.5360 C.ar    1  UNL1        0.2379
      4 N         140.1485  140.2833  166.0133 N.ar    1  UNL1       -0.1907
      5 C         140.0326  140.3976  167.5044 C.ar    1  UNL1        0.2041
      6 N         138.8930  139.5291  167.9487 N.ar    1  UNL1       -0.0560
      7 O         138.3047  138.8781  166.7321 O.2     1  UNL1       -0.3370
      8 C         140.9033  141.2335  168.3950 C.ar    1  UNL1        0.0497
      9 C         140.3931  142.5373  168.9334 C.ar    1  UNL1        0.0049
     10 C         141.2638  143.3731  169.8239 C.ar    1  UNL1        0.0115
     11 C         142.6448  142.9052  170.1761 C.ar    1  UNL1        0.0585
     12 CL        143.5155  143.7412  171.0667 Cl      1  UNL1       -0.0822
     13 C         143.1550  141.6015  169.6378 C.ar    1  UNL1        0.0229
     14 C         142.2843  140.7656  168.7472 C.ar    1  UNL1        0.0615
     15 CL        142.7945  139.4618  168.2088 Cl      1  UNL1       -0.0821
     16 C         138.5824  139.9905  163.0694 C.3     1  UNL1        0.1374
     17 N         137.4188  139.8541  162.1324 N.3     1  UNL1       -0.3146
     18 H         136.9095  138.9964  162.3455 H       1  UNL1        0.1192
     19 H         137.7586  139.8179  161.1714 H       1  UNL1        0.1192
     20 C         139.4958  141.1754  162.9631 C.2     1  UNL1        0.2402
     21 O         140.8006  141.0534  162.2331 O.2     1  UNL1       -0.2734
     22 N         139.1047  142.4824  163.5867 N.am    1  UNL1       -0.2785
     23 C         137.8386  142.7541  164.3439 C.3     1  UNL1        0.0935
     24 C         137.8624  144.1867  164.7877 C.3     1  UNL1        0.0233
     25 C         139.1431  144.8004  164.3050 C.3     1  UNL1        0.0233
     26 C         139.9109  143.7471  163.5627 C.3     1  UNL1        0.0935
@<TRIPOS>BOND
     1     2     1    1
     2     2     3    1
     3     3     4   ar
     4     4     5   ar
     5     5     8    1
     6     8     9   ar
     7     9    10   ar
     8    10    11   ar
     9    11    12    1
    10    11    13   ar
    11    13    14   ar
    12    14    15    1
    13     5     6   ar
    14     6     7   ar
    15     2    16    1
    16    16    17    1
    17    16    20    1
    18    20    21    2
    19    20    22   am
    20    22    23    1
    21    23    24    1
    22    24    25    1
    23    25    26    1
    24     7     3   ar
    25    26    22    1
    26    14     8   ar
    27    17    18    1
    28    17    19    1
@<TRIPOS>MOLECULE
*****
 26 28 0 0 0
SMALL
GASTEIGER

@<TRIPOS>ATOM
      1 C         142.4035  142.3068  159.5143 C.3     1  UNL1        0.0117
      2 C         142.0979  143.0228  160.7964 C.3     1  UNL1        0.1022
      3 C         142.8020  142.6298  162.0612 C.ar    1  UNL1        0.2379
      4 N         142.1776  141.9488  163.2429 N.ar    1  UNL1       -0.1907
      5 C         143.2439  141.7469  164.2783 C.ar    1  UNL1        0.2041
      6 N         144.5274  142.3031  163.7367 N.ar    1  UNL1       -0.0560
      7 O         144.2543  142.8488  162.3664 O.2     1  UNL1       -0.3370
      8 C         143.0592  141.1020  165.6200 C.ar    1  UNL1        0.0497
      9 C         142.7890  141.9486  166.8283 C.ar    1  UNL1        0.0049
     10 C         142.6043  141.3037  168.1699 C.ar    1  UNL1        0.0115
     11 C         142.6899  139.8121  168.3032 C.ar    1  UNL1        0.0585
     12 CL        142.5052  139.1672  169.6449 Cl      1  UNL1       -0.0822
     13 C         142.9602  138.9654  167.0949 C.ar    1  UNL1        0.0229
     14 C         143.1448  139.6103  165.7533 C.ar    1  UNL1        0.0615
     15 CL        143.4151  138.7637  164.5449 Cl      1  UNL1       -0.0821
     16 C         141.0881  144.1318  160.8137 C.3     1  UNL1        0.1374
     17 N         141.5044  145.5307  160.4669 N.3     1  UNL1       -0.3146
     18 H         142.5003  145.5444  160.2471 H       1  UNL1        0.1192
     19 H         141.3227  146.1460  161.2599 H       1  UNL1        0.1192
     20 C         139.6621  143.8423  161.1777 C.2     1  UNL1        0.2402
     21 O         138.7188  143.3030  160.1436 O.2     1  UNL1       -0.2734
     22 N         139.1793  144.0919  162.5758 N.am    1  UNL1       -0.2785
     23 C         140.0023  144.6258  163.7106 C.3     1  UNL1        0.0935
     24 C         139.1204  144.7153  164.9206 C.3     1  UNL1        0.0233
     25 C         137.7525  144.2368  164.5338 C.3     1  UNL1        0.0233
     26 C         137.7889  143.8515  163.0846 C.3     1  UNL1        0.0935
@<TRIPOS>BOND
     1     2     1    1
     2     2     3    1
     3     3     4   ar
     4     4     5   ar
     5     5     8    1
     6     8     9   ar
     7     9    10   ar
     8    10    11   ar
     9    11    12    1
    10    11    13   ar
    11    13    14   ar
    12    14    15    1
    13     5     6   ar
    14     6     7   ar
    15     2    16    1
    16    16    17    1
    17    16    20    1
    18    20    21    2
    19    20    22   am
    20    22    23    1
    21    23    24    1
    22    24    25    1
    23    25    26    1
    24     7     3   ar
    25    26    22    1
    26    14     8   ar
    27    17    18    1
    28    17    19    1
@<TRIPOS>MOLECULE
*****
 26 28 0 0 0
SMALL
GASTEIGER

@<TRIPOS>ATOM
      1 C         137.6998  140.4302  163.1325 C.3     1  UNL1        0.0117
      2 C         138.5958  139.4623  163.8468 C.3     1  UNL1        0.1022
      3 C         138.9414  139.6846  165.2895 C.ar    1  UNL1        0.2379
      4 N         139.9698  140.6433  165.8122 N.ar    1  UNL1       -0.1907
      5 C         139.9831  140.5384  167.3084 C.ar    1  UNL1        0.2041
      6 N         138.9630  139.5149  167.7105 N.ar    1  UNL1       -0.0560
      7 O         138.3191  138.9871  166.4627 O.2     1  UNL1       -0.3370
      8 C         140.8623  141.3199  168.2393 C.ar    1  UNL1        0.0497
      9 C         140.3472  142.5735  168.8819 C.ar    1  UNL1        0.0049
     10 C         141.2264  143.3549  169.8127 C.ar    1  UNL1        0.0115
     11 C         142.6207  142.8827  170.1009 C.ar    1  UNL1        0.0585
     12 CL        143.4999  143.6642  171.0317 Cl      1  UNL1       -0.0822
     13 C         143.1357  141.6290  169.4582 C.ar    1  UNL1        0.0229
     14 C         142.2566  140.8476  168.5274 C.ar    1  UNL1        0.0615
     15 CL        142.7716  139.5939  167.8848 Cl      1  UNL1       -0.0821
     16 C         139.1463  138.2721  163.1185 C.3     1  UNL1        0.1374
     17 N         138.2489  137.4464  162.2450 N.3     1  UNL1       -0.3146
     18 H         137.3059  137.8347  162.2628 H       1  UNL1        0.1192
     19 H         138.2280  136.4866  162.5898 H       1  UNL1        0.1192
     20 C         140.5940  137.9077  163.2636 C.2     1  UNL1        0.2402
     21 O         141.0156  136.9089  164.3004 O.2     1  UNL1       -0.2734
     22 N         141.6202  138.5418  162.3721 N.am    1  UNL1       -0.2785
     23 C         141.3502  139.5514  161.2960 C.3     1  UNL1        0.0935
     24 C         142.6596  139.9113  160.6591 C.3     1  UNL1        0.0233
     25 C         143.7389  139.1242  161.3414 C.3     1  UNL1        0.0233
     26 C         143.0965  138.2778  162.4001 C.3     1  UNL1        0.0935
@<TRIPOS>BOND
     1     2     1    1
     2     2     3    1
     3     3     4   ar
     4     4     5   ar
     5     5     8    1
     6     8     9   ar
     7     9    10   ar
     8    10    11   ar
     9    11    12    1
    10    11    13   ar
    11    13    14   ar
    12    14    15    1
    13     5     6   ar
    14     6     7   ar
    15     2    16    1
    16    16    17    1
    17    16    20    1
    18    20    21    2
    19    20    22   am
    20    22    23    1
    21    23    24    1
    22    24    25    1
    23    25    26    1
    24     7     3   ar
    25    26    22    1
    26    14     8   ar
    27    17    18    1
    28    17    19    1
@<TRIPOS>MOLECULE
*****
 26 28 0 0 0
SMALL
GASTEIGER

@<TRIPOS>ATOM
      1 C         139.0023  138.0380  161.1734 C.3     1  UNL1        0.0117
      2 C         140.0018  138.6802  162.0891 C.3     1  UNL1        0.1022
      3 C         139.5333  139.4659  163.2779 C.ar    1  UNL1        0.2379
      4 N         140.2487  139.5900  164.5904 N.ar    1  UNL1       -0.1907
      5 C         139.4247  140.4662  165.4866 C.ar    1  UNL1        0.2041
      6 N         138.1999  140.8837  164.7279 N.ar    1  UNL1       -0.0560
      7 O         138.2669  140.2655  163.3629 O.2     1  UNL1       -0.3370
      8 C         139.7656  140.8565  166.8943 C.ar    1  UNL1        0.0497
      9 C         139.4936  139.9064  168.0227 C.ar    1  UNL1        0.0049
     10 C         139.8345  140.2966  169.4303 C.ar    1  UNL1        0.0115
     11 C         140.4473  141.6370  169.7095 C.ar    1  UNL1        0.0585
     12 CL        140.7882  142.0272  171.1173 Cl      1  UNL1       -0.0822
     13 C         140.7192  142.5871  168.5811 C.ar    1  UNL1        0.0229
     14 C         140.3783  142.1968  167.1735 C.ar    1  UNL1        0.0615
     15 CL        140.6502  143.1469  166.0450 Cl      1  UNL1       -0.0821
     16 C         141.4697  138.5368  161.8161 C.3     1  UNL1        0.1374
     17 N         142.0924  137.1732  161.7598 N.3     1  UNL1       -0.3146
     18 H         141.3772  136.4657  161.9283 H       1  UNL1        0.1192
     19 H         142.8173  137.1007  162.4736 H       1  UNL1        0.1192
     20 C         142.3150  139.7567  161.5993 C.2     1  UNL1        0.2402
     21 O         142.0029  140.6946  160.4710 O.2     1  UNL1       -0.2734
     22 N         143.4724  140.0389  162.5108 N.am    1  UNL1       -0.2785
     23 C         143.9037  139.1969  163.6748 C.3     1  UNL1        0.0935
     24 C         145.0996  139.8502  164.3016 C.3     1  UNL1        0.0233
     25 C         145.4074  141.0960  163.5251 C.3     1  UNL1        0.0233
     26 C         144.4018  141.2127  162.4183 C.3     1  UNL1        0.0935
@<TRIPOS>BOND
     1     2     1    1
     2     2     3    1
     3     3     4   ar
     4     4     5   ar
     5     5     8    1
     6     8     9   ar
     7     9    10   ar
     8    10    11   ar
     9    11    12    1
    10    11    13   ar
    11    13    14   ar
    12    14    15    1
    13     5     6   ar
    14     6     7   ar
    15     2    16    1
    16    16    17    1
    17    16    20    1
    18    20    21    2
    19    20    22   am
    20    22    23    1
    21    23    24    1
    22    24    25    1
    23    25    26    1
    24     7     3   ar
    25    26    22    1
    26    14     8   ar
    27    17    18    1
    28    17    19    1
@<TRIPOS>MOLECULE
*****
 26 28 0 0 0
SMALL
GASTEIGER

@<TRIPOS>ATOM
      1 C         143.2379  142.9006  160.1358 C.3     1  UNL1        0.0117
      2 C         142.1400  143.0772  161.1425 C.3     1  UNL1        0.1022
      3 C         142.0218  142.1276  162.2977 C.ar    1  UNL1        0.2379
      4 N         140.7620  141.4622  162.7666 N.ar    1  UNL1       -0.1907
      5 C         141.1042  140.6001  163.9455 C.ar    1  UNL1        0.2041
      6 N         142.5756  140.7327  164.2050 N.ar    1  UNL1       -0.0560
      7 O         143.1428  141.6768  163.1867 O.2     1  UNL1       -0.3370
      8 C         140.1437  139.7539  164.7275 C.ar    1  UNL1        0.0497
      9 C         139.5303  140.2861  165.9885 C.ar    1  UNL1        0.0049
     10 C         138.5698  139.4399  166.7705 C.ar    1  UNL1        0.0115
     11 C         138.2228  138.0615  166.2913 C.ar    1  UNL1        0.0585
     12 CL        137.2623  137.2153  167.0733 Cl      1  UNL1       -0.0822
     13 C         138.8363  137.5293  165.0302 C.ar    1  UNL1        0.0229
     14 C         139.7967  138.3755  164.2483 C.ar    1  UNL1        0.0615
     15 CL        140.4102  137.8433  162.9871 Cl      1  UNL1       -0.0821
     16 C         141.1603  144.2033  160.9940 C.3     1  UNL1        0.1374
     17 N         141.6333  145.5546  160.5462 N.3     1  UNL1       -0.3146
     18 H         142.6407  145.5273  160.3888 H       1  UNL1        0.1192
     19 H         141.4202  146.2452  161.2659 H       1  UNL1        0.1192
     20 C         139.7079  143.9783  161.2934 C.2     1  UNL1        0.2402
     21 O         138.7841  143.5027  160.2115 O.2     1  UNL1       -0.2734
     22 N         139.1792  144.2290  162.6746 N.am    1  UNL1       -0.2785
     23 C         139.9783  144.7035  163.8519 C.3     1  UNL1        0.0935
     24 C         139.0515  144.8169  165.0258 C.3     1  UNL1        0.0233
     25 C         137.6796  144.4124  164.5741 C.3     1  UNL1        0.0233
     26 C         137.7584  144.0490  163.1209 C.3     1  UNL1        0.0935
@<TRIPOS>BOND
     1     2     1    1
     2     2     3    1
     3     3     4   ar
     4     4     5   ar
     5     5     8    1
     6     8     9   ar
     7     9    10   ar
     8    10    11   ar
     9    11    12    1
    10    11    13   ar
    11    13    14   ar
    12    14    15    1
    13     5     6   ar
    14     6     7   ar
    15     2    16    1
    16    16    17    1
    17    16    20    1
    18    20    21    2
    19    20    22   am
    20    22    23    1
    21    23    24    1
    22    24    25    1
    23    25    26    1
    24     7     3   ar
    25    26    22    1
    26    14     8   ar
    27    17    18    1
    28    17    19    1
@<TRIPOS>MOLECULE
*****
 26 28 0 0 0
SMALL
GASTEIGER

@<TRIPOS>ATOM
      1 C         138.8680  137.6861  163.4867 C.3     1  UNL1        0.0117
      2 C         138.5817  139.0648  164.0036 C.3     1  UNL1        0.1022
      3 C         138.8897  139.4098  165.4306 C.ar    1  UNL1        0.2379
      4 N         139.9629  140.3472  165.8991 N.ar    1  UNL1       -0.1907
      5 C         139.9151  140.3946  167.3976 C.ar    1  UNL1        0.2041
      6 N         138.8123  139.4866  167.8552 N.ar    1  UNL1       -0.0560
      7 O         138.1785  138.8779  166.6395 O.2     1  UNL1       -0.3370
      8 C         140.8125  141.2075  168.2831 C.ar    1  UNL1        0.0497
      9 C         140.3275  142.5083  168.8511 C.ar    1  UNL1        0.0049
     10 C         141.2249  143.3210  169.7366 C.ar    1  UNL1        0.0115
     11 C         142.6073  142.8330  170.0540 C.ar    1  UNL1        0.0585
     12 CL        143.5047  143.6458  170.9395 Cl      1  UNL1       -0.0822
     13 C         143.0923  141.5322  169.4860 C.ar    1  UNL1        0.0229
     14 C         142.1949  140.7194  168.6006 C.ar    1  UNL1        0.0615
     15 CL        142.6799  139.4185  168.0325 Cl      1  UNL1       -0.0821
     16 C         137.9874  140.0986  163.0936 C.3     1  UNL1        0.1374
     17 N         137.0043  141.0956  163.6320 N.3     1  UNL1       -0.3146
     18 H         136.8577  140.9254  164.6269 H       1  UNL1        0.1192
     19 H         136.1178  141.0007  163.1365 H       1  UNL1        0.1192
     20 C         138.3759  140.1353  161.6453 C.2     1  UNL1        0.2402
     21 O         137.4656  139.5449  160.6095 O.2     1  UNL1       -0.2734
     22 N         139.6745  140.7625  161.2328 N.am    1  UNL1       -0.2785
     23 C         140.6815  141.3898  162.1507 C.3     1  UNL1        0.0935
     24 C         141.8235  141.8874  161.3151 C.3     1  UNL1        0.0233
     25 C         141.5223  141.5678  159.8809 C.3     1  UNL1        0.0233
     26 C         140.1942  140.8725  159.8300 C.3     1  UNL1        0.0935
@<TRIPOS>BOND
     1     2     1    1
     2     2     3    1
     3     3     4   ar
     4     4     5   ar
     5     5     8    1
     6     8     9   ar
     7     9    10   ar
     8    10    11   ar
     9    11    12    1
    10    11    13   ar
    11    13    14   ar
    12    14    15    1
    13     5     6   ar
    14     6     7   ar
    15     2    16    1
    16    16    17    1
    17    16    20    1
    18    20    21    2
    19    20    22   am
    20    22    23    1
    21    23    24    1
    22    24    25    1
    23    25    26    1
    24     7     3   ar
    25    26    22    1
    26    14     8   ar
    27    17    18    1
    28    17    19    1
@<TRIPOS>MOLECULE
*****
 26 28 0 0 0
SMALL
GASTEIGER

@<TRIPOS>ATOM
      1 C         139.5847  139.6786  161.0539 C.3     1  UNL1        0.0117
      2 C         138.9685  140.2694  162.2872 C.3     1  UNL1        0.1022
      3 C         139.2743  139.6825  163.6333 C.ar    1  UNL1        0.2379
      4 N         139.8319  140.4236  164.8123 N.ar    1  UNL1       -0.1907
      5 C         139.9784  139.4506  165.9444 C.ar    1  UNL1        0.2041
      6 N         139.5114  138.1081  165.4652 N.ar    1  UNL1       -0.0560
      7 O         139.0762  138.2514  164.0369 O.2     1  UNL1       -0.3370
      8 C         140.5003  139.7649  167.3152 C.ar    1  UNL1        0.0497
      9 C         139.5477  140.1294  168.4150 C.ar    1  UNL1        0.0049
     10 C         140.0696  140.4436  169.7857 C.ar    1  UNL1        0.0115
     11 C         141.5441  140.3934  170.0565 C.ar    1  UNL1        0.0585
     12 CL        142.0660  140.7077  171.4273 Cl      1  UNL1       -0.0822
     13 C         142.4967  140.0290  168.9567 C.ar    1  UNL1        0.0229
     14 C         141.9748  139.7147  167.5860 C.ar    1  UNL1        0.0615
     15 CL        142.9274  139.3503  166.4860 Cl      1  UNL1       -0.0821
     16 C         138.0465  141.4472  162.1744 C.3     1  UNL1        0.1374
     17 N         136.6993  141.4108  162.8332 N.3     1  UNL1       -0.3146
     18 H         136.5780  140.5173  163.3099 H       1  UNL1        0.1192
     19 H         135.9721  141.5207  162.1265 H       1  UNL1        0.1192
     20 C         138.4715  142.6612  161.4029 C.2     1  UNL1        0.2402
     21 O         138.0559  142.8230  159.9706 O.2     1  UNL1       -0.2734
     22 N         139.3120  143.7135  162.0634 N.am    1  UNL1       -0.2785
     23 C         139.8016  143.6894  163.4810 C.3     1  UNL1        0.0935
     24 C         140.6025  144.9356  163.7160 C.3     1  UNL1        0.0233
     25 C         140.6080  145.7300  162.4437 C.3     1  UNL1        0.0233
     26 C         139.8104  144.9747  161.4223 C.3     1  UNL1        0.0935
@<TRIPOS>BOND
     1     2     1    1
     2     2     3    1
     3     3     4   ar
     4     4     5   ar
     5     5     8    1
     6     8     9   ar
     7     9    10   ar
     8    10    11   ar
     9    11    12    1
    10    11    13   ar
    11    13    14   ar
    12    14    15    1
    13     5     6   ar
    14     6     7   ar
    15     2    16    1
    16    16    17    1
    17    16    20    1
    18    20    21    2
    19    20    22   am
    20    22    23    1
    21    23    24    1
    22    24    25    1
    23    25    26    1
    24     7     3   ar
    25    26    22    1
    26    14     8   ar
    27    17    18    1
    28    17    19    1
@<TRIPOS>MOLECULE
*****
 26 28 0 0 0
SMALL
GASTEIGER

@<TRIPOS>ATOM
      1 C         142.2356  144.0188  158.6635 C.3     1  UNL1        0.0117
      2 C         141.6456  144.1045  160.0399 C.3     1  UNL1        0.1022
      3 C         142.4342  143.6308  161.2247 C.ar    1  UNL1        0.2379
      4 N         142.3093  142.2916  161.8888 N.ar    1  UNL1       -0.1907
      5 C         143.2840  142.2463  163.0279 C.ar    1  UNL1        0.2041
      6 N         144.0115  143.5575  163.0680 N.ar    1  UNL1       -0.0560
      7 O         143.4863  144.4132  161.9535 O.2     1  UNL1       -0.3370
      8 C         143.4945  141.0924  163.9630 C.ar    1  UNL1        0.0497
      9 C         144.7118  140.2270  163.8243 C.ar    1  UNL1        0.0049
     10 C         144.9221  139.0732  164.7593 C.ar    1  UNL1        0.0115
     11 C         143.9152  138.7847  165.8330 C.ar    1  UNL1        0.0585
     12 CL        144.1257  137.6308  166.7681 Cl      1  UNL1       -0.0822
     13 C         142.6979  139.6501  165.9717 C.ar    1  UNL1        0.0229
     14 C         142.4875  140.8039  165.0367 C.ar    1  UNL1        0.0615
     15 CL        141.2702  141.6693  165.1754 Cl      1  UNL1       -0.0821
     16 C         140.2671  144.6638  160.2315 C.3     1  UNL1        0.1374
     17 N         139.9464  146.0488  159.7525 N.3     1  UNL1       -0.3146
     18 H         140.7756  146.4611  159.3248 H       1  UNL1        0.1192
     19 H         139.6507  146.6219  160.5427 H       1  UNL1        0.1192
     20 C         139.2093  143.8385  160.9020 C.2     1  UNL1        0.2402
     21 O         138.4123  142.8491  160.1044 O.2     1  UNL1       -0.2734
     22 N         138.9483  144.0024  162.3700 N.am    1  UNL1       -0.2785
     23 C         139.6613  144.9464  163.2923 C.3     1  UNL1        0.0935
     24 C         139.0822  144.7786  164.6657 C.3     1  UNL1        0.0233
     25 C         138.0113  143.7309  164.5924 C.3     1  UNL1        0.0233
     26 C         137.9286  143.2512  163.1736 C.3     1  UNL1        0.0935
@<TRIPOS>BOND
     1     2     1    1
     2     2     3    1
     3     3     4   ar
     4     4     5   ar
     5     5     8    1
     6     8     9   ar
     7     9    10   ar
     8    10    11   ar
     9    11    12    1
    10    11    13   ar
    11    13    14   ar
    12    14    15    1
    13     5     6   ar
    14     6     7   ar
    15     2    16    1
    16    16    17    1
    17    16    20    1
    18    20    21    2
    19    20    22   am
    20    22    23    1
    21    23    24    1
    22    24    25    1
    23    25    26    1
    24     7     3   ar
    25    26    22    1
    26    14     8   ar
    27    17    18    1
    28    17    19    1
