@<TRIPOS>MOLECULE
*****
 21 24 0 0 0
SMALL
GASTEIGER

@<TRIPOS>ATOM
      1 N         141.9410  139.0484  165.3337 N.ar    1  UNL1       -0.3247
      2 C         141.4485  139.6171  166.6314 C.ar    1  UNL1        0.0759
      3 C         142.1444  140.9266  166.8574 C.ar    1  UNL1        0.0188
      4 C         143.0670  141.1672  165.6994 C.ar    1  UNL1        0.0203
      5 C         144.0053  142.2932  165.3808 C.ar    1  UNL1        0.0222
      6 C         144.8179  142.2585  164.1205 C.ar    1  UNL1        0.0990
      7 N         144.6922  141.0977  163.1788 N.ar    1  UNL1       -0.2408
      8 C         143.7539  139.9717  163.4974 C.ar    1  UNL1        0.1160
      9 C         142.9413  140.0064  164.7577 C.ar    1  UNL1        0.0794
     10 C         141.9516  141.8358  168.0347 C.ar    1  UNL1        0.0046
     11 C         143.0563  142.0137  169.0339 C.ar    1  UNL1        0.0207
     12 C         142.8635  142.9230  170.2112 C.ar    1  UNL1        0.0989
     13 N         141.5661  143.6544  170.3894 N.ar    1  UNL1       -0.2423
     14 C         140.4615  143.4765  169.3903 C.ar    1  UNL1        0.0989
     15 C         140.6543  142.5673  168.2130 C.ar    1  UNL1        0.0207
     16 C         141.5091  137.7498  164.7198 C.3     1  UNL1        0.1109
     17 C         139.4081  137.7629  165.0124 C.3     1  UNL1        0.0070
     18 C         140.3121  137.7085  163.8167 C.3     1  UNL1        0.0755
     19 C         141.2161  137.6542  162.6210 C.3     1  UNL1        0.1463
     20 O         140.0192  137.6130  161.7179 O.3     1  UNL1       -0.3535
     21 C         139.1151  137.6673  162.9137 C.3     1  UNL1        0.1463
@<TRIPOS>BOND
     1    17    18    1
     2    18    16    1
     3    16     1    1
     4     1     2   ar
     5     2     3   ar
     6     3    10    1
     7    10    11   ar
     8    11    12   ar
     9    12    13   ar
    10    13    14   ar
    11    14    15   ar
    12     3     4   ar
    13     4     5   ar
    14     5     6   ar
    15     6     7   ar
    16     7     8   ar
    17     8     9   ar
    18    18    19    1
    19    19    20    1
    20    20    21    1
    21    21    18    1
    22     9     1   ar
    23    15    10   ar
    24     9     4   ar
@<TRIPOS>MOLECULE
*****
 21 24 0 0 0
SMALL
GASTEIGER

@<TRIPOS>ATOM
      1 N         140.5695  142.4716  164.0632 N.ar    1  UNL1       -0.3247
      2 C         141.2046  143.1250  165.2548 C.ar    1  UNL1        0.0759
      3 C         140.8722  142.3041  166.4654 C.ar    1  UNL1        0.0188
      4 C         140.0318  141.1434  166.0221 C.ar    1  UNL1        0.0203
      5 C         139.4126  140.0057  166.7785 C.ar    1  UNL1        0.0222
      6 C         138.6064  138.9715  166.0503 C.ar    1  UNL1        0.0990
      7 N         138.4193  139.0751  164.5656 N.ar    1  UNL1       -0.2408
      8 C         139.0385  140.2128  163.8092 C.ar    1  UNL1        0.1160
      9 C         139.8447  141.2470  164.5374 C.ar    1  UNL1        0.0794
     10 C         141.3044  142.5931  167.8724 C.ar    1  UNL1        0.0046
     11 C         140.3662  143.2819  168.8188 C.ar    1  UNL1        0.0207
     12 C         140.7984  143.5709  170.2258 C.ar    1  UNL1        0.0989
     13 N         142.1688  143.1712  170.6865 N.ar    1  UNL1       -0.2423
     14 C         143.1070  142.4824  169.7402 C.ar    1  UNL1        0.0989
     15 C         142.6747  142.1934  168.3332 C.ar    1  UNL1        0.0207
     16 C         140.6459  142.9576  162.6462 C.3     1  UNL1        0.1109
     17 C         141.7592  144.7004  162.1739 C.3     1  UNL1        0.0070
     18 C         140.3011  144.3810  162.3218 C.3     1  UNL1        0.0755
     19 C         138.8430  144.0616  162.4698 C.3     1  UNL1        0.1463
     20 O         138.4983  145.4849  162.1454 O.3     1  UNL1       -0.3535
     21 C         139.9565  145.8044  161.9975 C.3     1  UNL1        0.1463
@<TRIPOS>BOND
     1    17    18    1
     2    18    16    1
     3    16     1    1
     4     1     2   ar
     5     2     3   ar
     6     3    10    1
     7    10    11   ar
     8    11    12   ar
     9    12    13   ar
    10    13    14   ar
    11    14    15   ar
    12     3     4   ar
    13     4     5   ar
    14     5     6   ar
    15     6     7   ar
    16     7     8   ar
    17     8     9   ar
    18    18    19    1
    19    19    20    1
    20    20    21    1
    21    21    18    1
    22     9     1   ar
    23    15    10   ar
    24     9     4   ar
@<TRIPOS>MOLECULE
*****
 21 24 0 0 0
SMALL
GASTEIGER

@<TRIPOS>ATOM
      1 N         141.5251  143.7546  164.1900 N.ar    1  UNL1       -0.3247
      2 C         141.3116  143.1929  165.5643 C.ar    1  UNL1        0.0759
      3 C         142.4741  142.3013  165.8864 C.ar    1  UNL1        0.0188
      4 C         143.4060  142.3120  164.7111 C.ar    1  UNL1        0.0203
      5 C         144.7129  141.6199  164.4601 C.ar    1  UNL1        0.0222
      6 C         145.4333  141.8260  163.1606 C.ar    1  UNL1        0.0990
      7 N         144.8467  142.7241  162.1122 N.ar    1  UNL1       -0.2408
      8 C         143.5399  143.4162  162.3632 C.ar    1  UNL1        0.1160
      9 C         142.8195  143.2102  163.6626 C.ar    1  UNL1        0.0794
     10 C         142.6703  141.5338  167.1601 C.ar    1  UNL1        0.0046
     11 C         142.4624  140.0484  167.1803 C.ar    1  UNL1        0.0207
     12 C         142.6585  139.2809  168.4541 C.ar    1  UNL1        0.0989
     13 N         143.0625  139.9987  169.7077 N.ar    1  UNL1       -0.2423
     14 C         143.2704  141.4841  169.6874 C.ar    1  UNL1        0.0989
     15 C         143.0742  142.2516  168.4137 C.ar    1  UNL1        0.0207
     16 C         140.6056  144.6955  163.4694 C.3     1  UNL1        0.1109
     17 C         138.8521  144.8690  164.6506 C.3     1  UNL1        0.0070
     18 C         139.1611  144.3366  163.2827 C.3     1  UNL1        0.0755
     19 C         139.4701  143.8043  161.9149 C.3     1  UNL1        0.1463
     20 O         138.0257  143.4454  161.7282 O.3     1  UNL1       -0.3535
     21 C         137.7167  143.9778  163.0962 C.3     1  UNL1        0.1463
@<TRIPOS>BOND
     1    17    18    1
     2    18    16    1
     3    16     1    1
     4     1     2   ar
     5     2     3   ar
     6     3    10    1
     7    10    11   ar
     8    11    12   ar
     9    12    13   ar
    10    13    14   ar
    11    14    15   ar
    12     3     4   ar
    13     4     5   ar
    14     5     6   ar
    15     6     7   ar
    16     7     8   ar
    17     8     9   ar
    18    18    19    1
    19    19    20    1
    20    20    21    1
    21    21    18    1
    22     9     1   ar
    23    15    10   ar
    24     9     4   ar
@<TRIPOS>MOLECULE
*****
 21 24 0 0 0
SMALL
GASTEIGER

@<TRIPOS>ATOM
      1 N         142.5067  142.2611  164.6376 N.ar    1  UNL1       -0.3247
      2 C         142.3193  141.7385  166.0310 C.ar    1  UNL1        0.0759
      3 C         141.0599  142.3363  166.5847 C.ar    1  UNL1        0.0188
      4 C         140.4690  143.2283  165.5334 C.ar    1  UNL1        0.0203
      5 C         139.2322  144.0768  165.5165 C.ar    1  UNL1        0.0222
      6 C         138.8896  144.8789  164.2962 C.ar    1  UNL1        0.0990
      7 N         139.7838  144.8324  163.0927 N.ar    1  UNL1       -0.2408
      8 C         141.0206  143.9839  163.1097 C.ar    1  UNL1        0.1160
      9 C         141.3632  143.1818  164.3300 C.ar    1  UNL1        0.0794
     10 C         140.4912  142.0860  167.9500 C.ar    1  UNL1        0.0046
     11 C         140.5294  143.1680  168.9883 C.ar    1  UNL1        0.0207
     12 C         139.9607  142.9177  170.3536 C.ar    1  UNL1        0.0989
     13 N         139.3538  141.5855  170.6806 N.ar    1  UNL1       -0.2423
     14 C         139.3156  140.5036  169.6423 C.ar    1  UNL1        0.0989
     15 C         139.8843  140.7539  168.2770 C.ar    1  UNL1        0.0207
     16 C         143.6390  141.9225  163.7138 C.3     1  UNL1        0.1109
     17 C         145.2241  140.5747  164.1270 C.3     1  UNL1        0.0070
     18 C         143.9285  140.4899  163.3759 C.3     1  UNL1        0.0755
     19 C         142.6328  140.4052  162.6249 C.3     1  UNL1        0.1463
     20 O         142.9223  138.9727  162.2870 O.3     1  UNL1       -0.3535
     21 C         144.2180  139.0574  163.0381 C.3     1  UNL1        0.1463
@<TRIPOS>BOND
     1    17    18    1
     2    18    16    1
     3    16     1    1
     4     1     2   ar
     5     2     3   ar
     6     3    10    1
     7    10    11   ar
     8    11    12   ar
     9    12    13   ar
    10    13    14   ar
    11    14    15   ar
    12     3     4   ar
    13     4     5   ar
    14     5     6   ar
    15     6     7   ar
    16     7     8   ar
    17     8     9   ar
    18    18    19    1
    19    19    20    1
    20    20    21    1
    21    21    18    1
    22     9     1   ar
    23    15    10   ar
    24     9     4   ar
@<TRIPOS>MOLECULE
*****
 21 24 0 0 0
SMALL
GASTEIGER

@<TRIPOS>ATOM
      1 N         139.9663  140.9985  167.6869 N.ar    1  UNL1       -0.3247
      2 C         140.8271  142.1717  167.3226 C.ar    1  UNL1        0.0759
      3 C         140.9823  142.1871  165.8307 C.ar    1  UNL1        0.0188
      4 C         140.2175  141.0235  165.2730 C.ar    1  UNL1        0.0203
      5 C         140.0117  140.5380  163.8688 C.ar    1  UNL1        0.0222
      6 C         139.1780  139.3178  163.6118 C.ar    1  UNL1        0.0990
      7 N         138.5501  138.5832  164.7590 N.ar    1  UNL1       -0.2408
      8 C         138.7559  139.0687  166.1632 C.ar    1  UNL1        0.1160
      9 C         139.5896  140.2889  166.4202 C.ar    1  UNL1        0.0794
     10 C         141.7649  143.1901  165.0360 C.ar    1  UNL1        0.0046
     11 C         143.2604  143.0929  164.9704 C.ar    1  UNL1        0.0207
     12 C         144.0431  144.0959  164.1757 C.ar    1  UNL1        0.0989
     13 N         143.3303  145.1961  163.4466 N.ar    1  UNL1       -0.2423
     14 C         141.8349  145.2933  163.5122 C.ar    1  UNL1        0.0989
     15 C         141.0523  144.2903  164.3069 C.ar    1  UNL1        0.0207
     16 C         139.5546  140.6042  169.0743 C.3     1  UNL1        0.1109
     17 C         141.2875  139.6353  169.8214 C.3     1  UNL1        0.0070
     18 C         140.4856  140.8361  170.2274 C.3     1  UNL1        0.0755
     19 C         139.6836  142.0369  170.6334 C.3     1  UNL1        0.1463
     20 O         140.6145  142.2689  171.7864 O.3     1  UNL1       -0.3535
     21 C         141.4166  141.0680  171.3804 C.3     1  UNL1        0.1463
@<TRIPOS>BOND
     1    17    18    1
     2    18    16    1
     3    16     1    1
     4     1     2   ar
     5     2     3   ar
     6     3    10    1
     7    10    11   ar
     8    11    12   ar
     9    12    13   ar
    10    13    14   ar
    11    14    15   ar
    12     3     4   ar
    13     4     5   ar
    14     5     6   ar
    15     6     7   ar
    16     7     8   ar
    17     8     9   ar
    18    18    19    1
    19    19    20    1
    20    20    21    1
    21    21    18    1
    22     9     1   ar
    23    15    10   ar
    24     9     4   ar
@<TRIPOS>MOLECULE
*****
 21 24 0 0 0
SMALL
GASTEIGER

@<TRIPOS>ATOM
      1 N         142.2042  140.1436  165.0917 N.ar    1  UNL1       -0.3247
      2 C         142.5418  140.8394  166.3770 C.ar    1  UNL1        0.0759
      3 C         141.3814  140.6730  167.3128 C.ar    1  UNL1        0.0188
      4 C         140.3267  139.8743  166.6059 C.ar    1  UNL1        0.0203
      5 C         138.9689  139.4027  167.0349 C.ar    1  UNL1        0.0222
      6 C         138.1197  138.6039  166.0911 C.ar    1  UNL1        0.0990
      7 N         138.6282  138.2768  164.7184 N.ar    1  UNL1       -0.2408
      8 C         139.9860  138.7483  164.2895 C.ar    1  UNL1        0.1160
      9 C         140.8352  139.5471  165.2332 C.ar    1  UNL1        0.0794
     10 C         141.2915  141.2108  168.7102 C.ar    1  UNL1        0.0046
     11 C         140.5014  142.4559  168.9853 C.ar    1  UNL1        0.0207
     12 C         140.4115  142.9937  170.3826 C.ar    1  UNL1        0.0989
     13 N         141.1116  142.2865  171.5050 N.ar    1  UNL1       -0.2423
     14 C         141.9017  141.0414  171.2299 C.ar    1  UNL1        0.0989
     15 C         141.9916  140.5036  169.8325 C.ar    1  UNL1        0.0207
     16 C         143.0816  140.0591  163.8781 C.3     1  UNL1        0.1109
     17 C         145.0734  139.5140  164.3635 C.3     1  UNL1        0.0070
     18 C         144.4075  140.7605  163.8607 C.3     1  UNL1        0.0755
     19 C         143.7415  142.0069  163.3580 C.3     1  UNL1        0.1463
     20 O         145.0673  142.7083  163.3406 O.3     1  UNL1       -0.3535
     21 C         145.7333  141.4618  163.8434 C.3     1  UNL1        0.1463
@<TRIPOS>BOND
     1    17    18    1
     2    18    16    1
     3    16     1    1
     4     1     2   ar
     5     2     3   ar
     6     3    10    1
     7    10    11   ar
     8    11    12   ar
     9    12    13   ar
    10    13    14   ar
    11    14    15   ar
    12     3     4   ar
    13     4     5   ar
    14     5     6   ar
    15     6     7   ar
    16     7     8   ar
    17     8     9   ar
    18    18    19    1
    19    19    20    1
    20    20    21    1
    21    21    18    1
    22     9     1   ar
    23    15    10   ar
    24     9     4   ar
@<TRIPOS>MOLECULE
*****
 21 24 0 0 0
SMALL
GASTEIGER

@<TRIPOS>ATOM
      1 N         139.4854  139.9159  165.4913 N.ar    1  UNL1       -0.3247
      2 C         140.2644  140.1067  166.7588 C.ar    1  UNL1        0.0759
      3 C         140.4212  141.5806  166.9891 C.ar    1  UNL1        0.0188
      4 C         139.7390  142.3007  165.8639 C.ar    1  UNL1        0.0203
      5 C         139.5698  143.7603  165.5626 C.ar    1  UNL1        0.0222
      6 C         138.8222  144.1911  164.3356 C.ar    1  UNL1        0.0990
      7 N         138.2438  143.1622  163.4100 N.ar    1  UNL1       -0.2408
      8 C         138.4130  141.7026  163.7112 C.ar    1  UNL1        0.1160
      9 C         139.1606  141.2718  164.9382 C.ar    1  UNL1        0.0794
     10 C         141.1349  142.2219  168.1421 C.ar    1  UNL1        0.0046
     11 C         140.4106  143.1943  169.0253 C.ar    1  UNL1        0.0207
     12 C         141.1243  143.8356  170.1783 C.ar    1  UNL1        0.0989
     13 N         142.5622  143.5045  170.4482 N.ar    1  UNL1       -0.2423
     14 C         143.2864  142.5321  169.5650 C.ar    1  UNL1        0.0989
     15 C         142.5727  141.8908  168.4120 C.ar    1  UNL1        0.0207
     16 C         139.0988  138.6001  164.8836 C.3     1  UNL1        0.1109
     17 C         141.0367  137.7419  164.7943 C.3     1  UNL1        0.0070
     18 C         139.9432  137.9975  163.8000 C.3     1  UNL1        0.0755
     19 C         138.8495  138.2531  162.8057 C.3     1  UNL1        0.1463
     20 O         139.6938  137.6506  161.7222 O.3     1  UNL1       -0.3535
     21 C         140.7875  137.3949  162.7165 C.3     1  UNL1        0.1463
@<TRIPOS>BOND
     1    17    18    1
     2    18    16    1
     3    16     1    1
     4     1     2   ar
     5     2     3   ar
     6     3    10    1
     7    10    11   ar
     8    11    12   ar
     9    12    13   ar
    10    13    14   ar
    11    14    15   ar
    12     3     4   ar
    13     4     5   ar
    14     5     6   ar
    15     6     7   ar
    16     7     8   ar
    17     8     9   ar
    18    18    19    1
    19    19    20    1
    20    20    21    1
    21    21    18    1
    22     9     1   ar
    23    15    10   ar
    24     9     4   ar
@<TRIPOS>MOLECULE
*****
 21 24 0 0 0
SMALL
GASTEIGER

@<TRIPOS>ATOM
      1 N         141.3249  140.2826  167.6937 N.ar    1  UNL1       -0.3247
      2 C         140.2656  141.2689  167.2997 C.ar    1  UNL1        0.0759
      3 C         140.3368  141.4564  165.8132 C.ar    1  UNL1        0.0188
      4 C         141.4400  140.5860  165.2885 C.ar    1  UNL1        0.0203
      5 C         141.9675  140.3603  163.9026 C.ar    1  UNL1        0.0222
      6 C         143.1055  139.4091  163.6789 C.ar    1  UNL1        0.0990
      7 N         143.7162  138.6837  164.8412 N.ar    1  UNL1       -0.2408
      8 C         143.1888  138.9094  166.2271 C.ar    1  UNL1        0.1160
      9 C         142.0507  139.8606  166.4507 C.ar    1  UNL1        0.0794
     10 C         139.4589  142.3562  164.9950 C.ar    1  UNL1        0.0046
     11 C         138.3928  141.7691  164.1181 C.ar    1  UNL1        0.0207
     12 C         137.5149  142.6689  163.2998 C.ar    1  UNL1        0.0989
     13 N         137.7030  144.1559  163.3585 N.ar    1  UNL1       -0.2423
     14 C         138.7690  144.7431  164.2353 C.ar    1  UNL1        0.0989
     15 C         139.6469  143.8432  165.0535 C.ar    1  UNL1        0.0207
     16 C         141.6085  139.8027  169.0863 C.3     1  UNL1        0.1109
     17 C         143.0649  141.2389  169.6485 C.3     1  UNL1        0.0070
     18 C         141.7467  140.7907  170.2066 C.3     1  UNL1        0.0755
     19 C         140.4285  140.3423  170.7646 C.3     1  UNL1        0.1463
     20 O         140.5667  141.3302  171.8848 O.3     1  UNL1       -0.3535
     21 C         141.8850  141.7786  171.3267 C.3     1  UNL1        0.1463
@<TRIPOS>BOND
     1    17    18    1
     2    18    16    1
     3    16     1    1
     4     1     2   ar
     5     2     3   ar
     6     3    10    1
     7    10    11   ar
     8    11    12   ar
     9    12    13   ar
    10    13    14   ar
    11    14    15   ar
    12     3     4   ar
    13     4     5   ar
    14     5     6   ar
    15     6     7   ar
    16     7     8   ar
    17     8     9   ar
    18    18    19    1
    19    19    20    1
    20    20    21    1
    21    21    18    1
    22     9     1   ar
    23    15    10   ar
    24     9     4   ar
@<TRIPOS>MOLECULE
*****
 21 24 0 0 0
SMALL
GASTEIGER

@<TRIPOS>ATOM
      1 N         140.2243  141.5992  164.2418 N.ar    1  UNL1       -0.3247
      2 C         139.7252  142.0259  165.5905 C.ar    1  UNL1        0.0759
      3 C         140.5088  141.2823  166.6312 C.ar    1  UNL1        0.0188
      4 C         141.4922  140.3960  165.9257 C.ar    1  UNL1        0.0203
      5 C         142.5250  139.4360  166.4372 C.ar    1  UNL1        0.0222
      6 C         143.3819  138.6719  165.4719 C.ar    1  UNL1        0.0990
      7 N         143.2060  138.8678  163.9952 N.ar    1  UNL1       -0.2408
      8 C         142.1732  139.8278  163.4837 C.ar    1  UNL1        0.1160
      9 C         141.3163  140.5919  164.4490 C.ar    1  UNL1        0.0794
     10 C         140.3390  141.4036  168.1166 C.ar    1  UNL1        0.0046
     11 C         140.5199  142.7337  168.7861 C.ar    1  UNL1        0.0207
     12 C         140.3501  142.8550  170.2715 C.ar    1  UNL1        0.0989
     13 N         139.9993  141.6463  171.0874 N.ar    1  UNL1       -0.2423
     14 C         139.8183  140.3162  170.4180 C.ar    1  UNL1        0.0989
     15 C         139.9882  140.1949  168.9326 C.ar    1  UNL1        0.0207
     16 C         139.7198  142.0931  162.9183 C.3     1  UNL1        0.1109
     17 C         140.9759  143.7861  162.6818 C.3     1  UNL1        0.0070
     18 C         139.4932  143.5601  162.7021 C.3     1  UNL1        0.0755
     19 C         138.0105  143.3340  162.7225 C.3     1  UNL1        0.1463
     20 O         137.7839  144.8010  162.5062 O.3     1  UNL1       -0.3535
     21 C         139.2667  145.0270  162.4859 C.3     1  UNL1        0.1463
@<TRIPOS>BOND
     1    17    18    1
     2    18    16    1
     3    16     1    1
     4     1     2   ar
     5     2     3   ar
     6     3    10    1
     7    10    11   ar
     8    11    12   ar
     9    12    13   ar
    10    13    14   ar
    11    14    15   ar
    12     3     4   ar
    13     4     5   ar
    14     5     6   ar
    15     6     7   ar
    16     7     8   ar
    17     8     9   ar
    18    18    19    1
    19    19    20    1
    20    20    21    1
    21    21    18    1
    22     9     1   ar
    23    15    10   ar
    24     9     4   ar
