@<TRIPOS>MOLECULE
*****
 41 44 0 0 0
SMALL
GASTEIGER

@<TRIPOS>ATOM
      1 C         141.0774  139.9490  161.7383 C.2     1  UNL1        0.2485
      2 O         140.1223  138.7934  161.6923 O.2     1  UNL1       -0.2726
      3 N         142.0291  140.1811  160.6022 N.am    1  UNL1       -0.2823
      4 H         142.6560  140.9396  160.6323 H       1  UNL1        0.1549
      5 C         140.1822  143.0871  161.7233 C.2     1  UNL1        0.2508
      6 O         140.0723  142.4150  160.3869 O.2     1  UNL1       -0.2723
      7 N         140.6695  142.3150  162.9134 N.am    1  UNL1       -0.2636
      8 C         140.8310  142.8496  164.3055 C.3     1  UNL1        0.1207
      9 C         141.3423  141.7377  165.1728 C.ar    1  UNL1       -0.0030
     10 C         141.6871  141.6800  166.6315 C.ar    1  UNL1        0.0155
     11 C         142.1864  140.4003  167.2340 C.ar    1  UNL1        0.1054
     12 C         142.3410  139.1784  166.3778 C.ar    1  UNL1        0.0181
     13 C         141.9962  139.2361  164.9192 C.ar    1  UNL1       -0.0011
     14 C         141.4968  140.5158  164.3167 C.ar    1  UNL1        0.0022
     15 C         141.0811  140.8725  162.9203 C.3     1  UNL1        0.1751
     16 S         142.5313  140.3425  168.6927 S.O2    1  UNL1        0.0104
     17 C         142.8760  140.2848  170.1514 C.3     1  UNL1        0.1816
     18 O         143.0773  138.9576  168.5089 O.2     1  UNL1       -0.1686
     19 O         141.9852  141.7275  168.8766 O.2     1  UNL1       -0.1686
     20 C         139.8046  144.5314  161.8697 C.3     1  UNL1        0.1611
     21 C         139.9456  146.0198  161.9923 C.3     1  UNL1        0.0390
     22 C         141.1665  145.1597  161.8520 C.3     1  UNL1        0.0390
     23 C         137.6523  143.9887  163.2199 C.3     1  UNL1        0.1745
     24 O         138.3115  144.4047  161.9383 O.3     1  UNL1       -0.3472
     25 C         142.0255  139.2576  159.4202 C.ar    1  UNL1        0.0503
     26 C         142.8023  137.9753  159.4680 C.ar    1  UNL1        0.0144
     27 C         142.7986  137.0517  158.2860 C.ar    1  UNL1       -0.0002
     28 C         142.0182  137.4106  157.0563 C.ar    1  UNL1        0.0182
     29 C         141.2415  138.6929  157.0086 C.ar    1  UNL1       -0.0002
     30 C         141.2451  139.6164  158.1906 C.ar    1  UNL1        0.0144
     31 C         142.0146  136.4871  155.8743 C.3     1  UNL1        0.2827
     32 O         140.5636  136.1894  156.1112 O.3     1  UNL1       -0.3692
     33 H         140.2487  135.5623  155.4416 H       1  UNL1        0.2112
     34 C         142.0110  135.5636  154.6923 C.3     1  UNL1        0.4311
     35 F         142.0074  134.6401  153.5102 F       1  UNL1       -0.1669
     36 F         141.6680  134.4134  155.5919 F       1  UNL1       -0.1669
     37 F         142.2118  136.1712  154.0799 F       1  UNL1       -0.1669
     38 C         143.4655  136.7847  155.6374 C.3     1  UNL1        0.4311
     39 F         144.9165  137.0824  155.4005 F       1  UNL1       -0.1669
     40 F         143.3622  137.6246  155.3759 F       1  UNL1       -0.1669
     41 F         144.1607  135.5017  155.9848 F       1  UNL1       -0.1669
@<TRIPOS>BOND
     1    23    24    1
     2    24    20    1
     3    20     5    1
     4     5     6    2
     5     5     7   am
     6     7     8    1
     7     8     9    1
     8     9    10   ar
     9    10    11   ar
    10    11    16    1
    11    16    17    1
    12    16    18    2
    13    16    19    2
    14    11    12   ar
    15    12    13   ar
    16    13    14   ar
    17    14    15    1
    18    15     1    1
    19     1     2    2
    20     1     3   am
    21     3    25    1
    22    25    26   ar
    23    26    27   ar
    24    27    28   ar
    25    28    31    1
    26    31    32    1
    27    31    34    1
    28    34    35    1
    29    34    36    1
    30    34    37    1
    31    31    38    1
    32    38    39    1
    33    38    40    1
    34    38    41    1
    35    28    29   ar
    36    29    30   ar
    37    20    21    1
    38    21    22    1
    39    22    20    1
    40    15     7    1
    41    30    25   ar
    42    14     9   ar
    43     3     4    1
    44    32    33    1
@<TRIPOS>MOLECULE
*****
 41 44 0 0 0
SMALL
GASTEIGER

@<TRIPOS>ATOM
      1 C         139.2196  139.9910  157.8322 C.2     1  UNL1        0.2485
      2 O         140.3967  140.8870  158.0800 O.2     1  UNL1       -0.2726
      3 N         138.0621  139.9922  158.7864 N.am    1  UNL1       -0.2823
      4 H         137.2895  139.4042  158.6238 H       1  UNL1        0.1549
      5 C         137.2187  140.2627  155.2686 C.2     1  UNL1        0.2508
      6 O         137.0047  141.3079  156.3229 O.2     1  UNL1       -0.2723
      7 N         138.2800  139.2187  155.4519 N.am    1  UNL1       -0.2636
      8 C         138.6081  138.1162  154.4891 C.3     1  UNL1        0.1207
      9 C         139.7305  137.3100  155.0724 C.ar    1  UNL1       -0.0030
     10 C         140.4667  136.1038  154.5696 C.ar    1  UNL1        0.0155
     11 C         141.5687  135.5018  155.3900 C.ar    1  UNL1        0.1054
     12 C         141.9344  136.1060  156.7134 C.ar    1  UNL1        0.0181
     13 C         141.1981  137.3122  157.2162 C.ar    1  UNL1       -0.0011
     14 C         140.0961  137.9142  156.3958 C.ar    1  UNL1        0.0022
     15 C         139.1997  139.0938  156.6303 C.3     1  UNL1        0.1751
     16 S         142.3051  134.2955  154.8872 S.O2    1  UNL1        0.0104
     17 C         143.0414  133.0894  154.3843 C.3     1  UNL1        0.1816
     18 O         142.4260  133.7837  156.2919 O.2     1  UNL1       -0.1686
     19 O         142.1841  134.8074  153.4824 O.2     1  UNL1       -0.1686
     20 C         136.3713  140.2614  154.0309 C.3     1  UNL1        0.1611
     21 C         135.8863  140.6078  152.6543 C.3     1  UNL1        0.0390
     22 C         137.1202  141.2620  153.2014 C.3     1  UNL1        0.0390
     23 C         134.2855  139.6279  155.4444 C.3     1  UNL1        0.1745
     24 O         135.3281  139.2604  154.4304 O.3     1  UNL1       -0.3472
     25 C         138.0819  140.8895  159.9884 C.ar    1  UNL1        0.0503
     26 C         137.5803  140.3853  161.3090 C.ar    1  UNL1        0.0144
     27 C         137.6001  141.2825  162.5109 C.ar    1  UNL1       -0.0002
     28 C         138.1216  142.6839  162.3921 C.ar    1  UNL1        0.0182
     29 C         138.6233  143.1881  161.0715 C.ar    1  UNL1       -0.0002
     30 C         138.6034  142.2908  159.8695 C.ar    1  UNL1        0.0144
     31 C         138.1415  143.5812  163.5940 C.3     1  UNL1        0.2827
     32 O         137.4133  144.6378  162.8173 O.3     1  UNL1       -0.3692
     33 H         137.2685  145.4126  163.3827 H       1  UNL1        0.2112
     34 C         138.1614  144.4784  164.7959 C.3     1  UNL1        0.4311
     35 F         138.1813  145.3756  165.9979 F       1  UNL1       -0.1669
     36 F         139.5856  144.8442  164.4993 F       1  UNL1       -0.1669
     37 F         137.3282  144.3286  165.0564 F       1  UNL1       -0.1669
     38 C         138.8697  142.5245  164.3707 C.3     1  UNL1        0.4311
     39 F         139.5978  141.4679  165.1475 F       1  UNL1       -0.1669
     40 F         138.2140  142.3343  164.9350 F       1  UNL1       -0.1669
     41 F         140.2181  142.4580  163.7170 F       1  UNL1       -0.1669
@<TRIPOS>BOND
     1    23    24    1
     2    24    20    1
     3    20     5    1
     4     5     6    2
     5     5     7   am
     6     7     8    1
     7     8     9    1
     8     9    10   ar
     9    10    11   ar
    10    11    16    1
    11    16    17    1
    12    16    18    2
    13    16    19    2
    14    11    12   ar
    15    12    13   ar
    16    13    14   ar
    17    14    15    1
    18    15     1    1
    19     1     2    2
    20     1     3   am
    21     3    25    1
    22    25    26   ar
    23    26    27   ar
    24    27    28   ar
    25    28    31    1
    26    31    32    1
    27    31    34    1
    28    34    35    1
    29    34    36    1
    30    34    37    1
    31    31    38    1
    32    38    39    1
    33    38    40    1
    34    38    41    1
    35    28    29   ar
    36    29    30   ar
    37    20    21    1
    38    21    22    1
    39    22    20    1
    40    15     7    1
    41    30    25   ar
    42    14     9   ar
    43     3     4    1
    44    32    33    1
@<TRIPOS>MOLECULE
*****
 41 44 0 0 0
SMALL
GASTEIGER

@<TRIPOS>ATOM
      1 C         141.7090  138.9689  158.6057 C.2     1  UNL1        0.2485
      2 O         142.3854  137.9916  159.5206 O.2     1  UNL1       -0.2726
      3 N         140.5523  139.7847  159.1026 N.am    1  UNL1       -0.2823
      4 H         140.1083  140.4261  158.5021 H       1  UNL1        0.1549
      5 C         140.2555  137.7786  155.9373 C.2     1  UNL1        0.2508
      6 O         139.5417  137.4554  157.2164 O.2     1  UNL1       -0.2723
      7 N         141.5209  138.5834  155.9673 N.am    1  UNL1       -0.2636
      8 C         142.3405  138.9825  154.7760 C.3     1  UNL1        0.1207
      9 C         143.5151  139.7762  155.2663 C.ar    1  UNL1       -0.0030
     10 C         144.6578  140.4274  154.5451 C.ar    1  UNL1        0.0155
     11 C         145.7068  141.1701  155.3182 C.ar    1  UNL1        0.1054
     12 C         145.6132  141.2617  156.8125 C.ar    1  UNL1        0.0181
     13 C         144.4705  140.6105  157.5336 C.ar    1  UNL1       -0.0011
     14 C         143.4215  139.8677  156.7605 C.ar    1  UNL1        0.0022
     15 C         142.1890  139.1305  157.1938 C.3     1  UNL1        0.1751
     16 S         146.8496  141.8214  154.5970 S.O2    1  UNL1        0.0104
     17 C         147.9923  142.4726  153.8759 C.3     1  UNL1        0.1816
     18 O         146.1626  141.5758  153.2865 O.2     1  UNL1       -0.1686
     19 O         147.5366  142.0670  155.9076 O.2     1  UNL1       -0.1686
     20 C         139.7038  137.2969  154.6283 C.3     1  UNL1        0.1611
     21 C         138.7968  137.1766  153.4396 C.3     1  UNL1        0.0390
     22 C         138.4890  138.1701  154.5204 C.3     1  UNL1        0.0390
     23 C         141.0649  135.1785  155.2684 C.3     1  UNL1        0.1745
     24 O         140.7271  136.2564  154.2815 O.3     1  UNL1       -0.3472
     25 C         140.0723  139.6230  160.5145 C.ar    1  UNL1        0.0503
     26 C         138.8632  138.7839  160.8042 C.ar    1  UNL1        0.0144
     27 C         138.3831  138.6223  162.2161 C.ar    1  UNL1       -0.0002
     28 C         139.1122  139.2998  163.3382 C.ar    1  UNL1        0.0182
     29 C         140.3213  140.1389  163.0486 C.ar    1  UNL1       -0.0002
     30 C         140.8014  140.3005  161.6367 C.ar    1  UNL1        0.0144
     31 C         138.6322  139.1382  164.7502 C.3     1  UNL1        0.2827
     32 O         137.6986  140.2976  164.5656 O.3     1  UNL1       -0.3692
     33 H         137.2047  140.4489  165.3866 H       1  UNL1        0.2112
     34 C         138.1523  138.9765  166.1621 C.3     1  UNL1        0.4311
     35 F         137.6724  138.8148  167.5741 F       1  UNL1       -0.1669
     36 F         138.7761  140.2916  166.5247 F       1  UNL1       -0.1669
     37 F         137.7521  138.1941  166.0513 F       1  UNL1       -0.1669
     38 C         139.5659  137.9788  164.9348 C.3     1  UNL1        0.4311
     39 F         140.4995  136.8193  165.1194 F       1  UNL1       -0.1669
     40 F         139.0898  137.3838  164.4831 F       1  UNL1       -0.1669
     41 F         140.6912  138.5449  165.7492 F       1  UNL1       -0.1669
@<TRIPOS>BOND
     1    23    24    1
     2    24    20    1
     3    20     5    1
     4     5     6    2
     5     5     7   am
     6     7     8    1
     7     8     9    1
     8     9    10   ar
     9    10    11   ar
    10    11    16    1
    11    16    17    1
    12    16    18    2
    13    16    19    2
    14    11    12   ar
    15    12    13   ar
    16    13    14   ar
    17    14    15    1
    18    15     1    1
    19     1     2    2
    20     1     3   am
    21     3    25    1
    22    25    26   ar
    23    26    27   ar
    24    27    28   ar
    25    28    31    1
    26    31    32    1
    27    31    34    1
    28    34    35    1
    29    34    36    1
    30    34    37    1
    31    31    38    1
    32    38    39    1
    33    38    40    1
    34    38    41    1
    35    28    29   ar
    36    29    30   ar
    37    20    21    1
    38    21    22    1
    39    22    20    1
    40    15     7    1
    41    30    25   ar
    42    14     9   ar
    43     3     4    1
    44    32    33    1
@<TRIPOS>MOLECULE
*****
 41 44 0 0 0
SMALL
GASTEIGER

@<TRIPOS>ATOM
      1 C         143.5584  140.0096  159.0880 C.2     1  UNL1        0.2485
      2 O         142.6263  141.1070  159.5084 O.2     1  UNL1       -0.2726
      3 N         144.1461  139.0897  160.1168 N.am    1  UNL1       -0.2823
      4 H         144.7579  138.3694  159.8409 H       1  UNL1        0.1549
      5 C         142.3540  137.7220  157.0965 C.2     1  UNL1        0.2508
      6 O         141.8228  137.6523  158.4975 O.2     1  UNL1       -0.2723
      7 N         143.3492  138.7805  156.7235 N.am    1  UNL1       -0.2636
      8 C         143.9656  138.9734  155.3697 C.3     1  UNL1        0.1207
      9 C         144.9001  140.1441  155.4483 C.ar    1  UNL1       -0.0030
     10 C         145.7813  140.7955  154.4241 C.ar    1  UNL1        0.0155
     11 C         146.6237  141.9775  154.8023 C.ar    1  UNL1        0.1054
     12 C         146.5849  142.5082  156.2048 C.ar    1  UNL1        0.0181
     13 C         145.7037  141.8568  157.2290 C.ar    1  UNL1       -0.0011
     14 C         144.8613  140.6748  156.8508 C.ar    1  UNL1        0.0022
     15 C         143.9028  139.8320  157.6389 C.3     1  UNL1        0.1751
     16 S         147.5050  142.6290  153.7781 S.O2    1  UNL1        0.0104
     17 C         148.3863  143.2804  152.7539 C.3     1  UNL1        0.1816
     18 O         147.6911  141.3058  153.0966 O.2     1  UNL1       -0.1686
     19 O         147.3189  143.9521  154.4596 O.2     1  UNL1       -0.1686
     20 C         141.8900  136.7332  156.0685 C.3     1  UNL1        0.1611
     21 C         141.0159  136.0654  155.0486 C.3     1  UNL1        0.0390
     22 C         140.5480  137.3143  155.7352 C.3     1  UNL1        0.0390
     23 C         143.3109  134.8689  157.1890 C.3     1  UNL1        0.1745
     24 O         143.0710  135.8086  156.0447 O.3     1  UNL1       -0.3472
     25 C         143.8017  139.2673  161.5659 C.ar    1  UNL1        0.0503
     26 C         142.8222  138.3406  162.2230 C.ar    1  UNL1        0.0144
     27 C         142.4778  138.5182  163.6721 C.ar    1  UNL1       -0.0002
     28 C         143.1129  139.6225  164.4640 C.ar    1  UNL1        0.0182
     29 C         144.0924  140.5491  163.8069 C.ar    1  UNL1       -0.0002
     30 C         144.4368  140.3715  162.3578 C.ar    1  UNL1        0.0144
     31 C         142.7686  139.8001  165.9131 C.3     1  UNL1        0.2827
     32 O         142.0582  141.0805  165.5874 O.3     1  UNL1       -0.3692
     33 H         141.6952  141.4647  166.4007 H       1  UNL1        0.2112
     34 C         142.4243  139.9777  167.3622 C.3     1  UNL1        0.4311
     35 F         142.0800  140.1553  168.8113 F       1  UNL1       -0.1669
     36 F         140.9766  139.7434  167.0470 F       1  UNL1       -0.1669
     37 F         143.2479  140.1278  167.6514 F       1  UNL1       -0.1669
     38 C         143.4789  138.5197  166.2388 C.3     1  UNL1        0.4311
     39 F         144.1892  137.2393  166.5645 F       1  UNL1       -0.1669
     40 F         142.7756  138.0832  166.5539 F       1  UNL1       -0.1669
     41 F         144.8999  138.7800  165.8347 F       1  UNL1       -0.1669
@<TRIPOS>BOND
     1    23    24    1
     2    24    20    1
     3    20     5    1
     4     5     6    2
     5     5     7   am
     6     7     8    1
     7     8     9    1
     8     9    10   ar
     9    10    11   ar
    10    11    16    1
    11    16    17    1
    12    16    18    2
    13    16    19    2
    14    11    12   ar
    15    12    13   ar
    16    13    14   ar
    17    14    15    1
    18    15     1    1
    19     1     2    2
    20     1     3   am
    21     3    25    1
    22    25    26   ar
    23    26    27   ar
    24    27    28   ar
    25    28    31    1
    26    31    32    1
    27    31    34    1
    28    34    35    1
    29    34    36    1
    30    34    37    1
    31    31    38    1
    32    38    39    1
    33    38    40    1
    34    38    41    1
    35    28    29   ar
    36    29    30   ar
    37    20    21    1
    38    21    22    1
    39    22    20    1
    40    15     7    1
    41    30    25   ar
    42    14     9   ar
    43     3     4    1
    44    32    33    1
@<TRIPOS>MOLECULE
*****
 41 44 0 0 0
SMALL
GASTEIGER

@<TRIPOS>ATOM
      1 C         142.8263  139.0309  158.4128 C.2     1  UNL1        0.2485
      2 O         143.6845  138.5504  159.5453 O.2     1  UNL1       -0.2726
      3 N         141.3895  139.3853  158.6587 N.am    1  UNL1       -0.2823
      4 H         140.8262  139.7006  157.9154 H       1  UNL1        0.1549
      5 C         142.2195  137.0522  155.8896 C.2     1  UNL1        0.2508
      6 O         141.4948  136.6761  157.1479 O.2     1  UNL1       -0.2723
      7 N         143.1257  138.2475  155.8748 N.am    1  UNL1       -0.2636
      8 C         143.9121  138.7431  154.6976 C.3     1  UNL1        0.1207
      9 C         144.6770  139.9589  155.1297 C.ar    1  UNL1       -0.0030
     10 C         145.6186  140.8661  154.3947 C.ar    1  UNL1        0.0155
     11 C         146.2465  142.0291  155.1040 C.ar    1  UNL1        0.1054
     12 C         145.9328  142.2848  156.5484 C.ar    1  UNL1        0.0181
     13 C         144.9913  141.3776  157.2834 C.ar    1  UNL1       -0.0011
     14 C         144.3633  140.2147  156.5741 C.ar    1  UNL1        0.0022
     15 C         143.4046  139.1569  157.0345 C.3     1  UNL1        0.1751
     16 S         147.1882  142.9364  154.3689 S.O2    1  UNL1        0.0104
     17 C         148.1297  143.8436  153.6339 C.3     1  UNL1        0.1816
     18 O         148.3522  142.1332  154.8687 O.2     1  UNL1       -0.1686
     19 O         146.0241  143.7395  153.8691 O.2     1  UNL1       -0.1686
     20 C         142.0381  136.2331  154.6463 C.3     1  UNL1        0.1611
     21 C         141.4115  135.6846  153.3986 C.3     1  UNL1        0.0390
     22 C         140.6934  136.7278  154.2023 C.3     1  UNL1        0.0390
     23 C         143.7020  134.6576  155.8708 C.3     1  UNL1        0.1745
     24 O         143.3198  135.4538  154.6584 O.3     1  UNL1       -0.3472
     25 C         140.8112  139.2592  160.0369 C.ar    1  UNL1        0.0503
     26 C         141.3613  140.0878  161.1598 C.ar    1  UNL1        0.0144
     27 C         140.7830  139.9617  162.5381 C.ar    1  UNL1       -0.0002
     28 C         139.6545  139.0070  162.7934 C.ar    1  UNL1        0.0182
     29 C         139.1045  138.1785  161.6705 C.ar    1  UNL1       -0.0002
     30 C         139.6828  138.3045  160.2923 C.ar    1  UNL1        0.0144
     31 C         139.0761  138.8809  164.1717 C.3     1  UNL1        0.2827
     32 O         138.0185  139.8846  163.8198 O.3     1  UNL1       -0.3692
     33 H         137.4379  140.0241  164.5842 H       1  UNL1        0.2112
     34 C         138.4978  138.7547  165.5499 C.3     1  UNL1        0.4311
     35 F         137.9195  138.6285  166.9282 F       1  UNL1       -0.1669
     36 F         138.8282  140.1927  165.8203 F       1  UNL1       -0.1669
     37 F         138.2625  137.9028  165.4908 F       1  UNL1       -0.1669
     38 C         140.1338  137.8771  164.5236 C.3     1  UNL1        0.4311
     39 F         141.1915  136.8733  164.8754 F       1  UNL1       -0.1669
     40 F         139.8120  137.2076  164.0412 F       1  UNL1       -0.1669
     41 F         141.0486  138.6230  165.4492 F       1  UNL1       -0.1669
@<TRIPOS>BOND
     1    23    24    1
     2    24    20    1
     3    20     5    1
     4     5     6    2
     5     5     7   am
     6     7     8    1
     7     8     9    1
     8     9    10   ar
     9    10    11   ar
    10    11    16    1
    11    16    17    1
    12    16    18    2
    13    16    19    2
    14    11    12   ar
    15    12    13   ar
    16    13    14   ar
    17    14    15    1
    18    15     1    1
    19     1     2    2
    20     1     3   am
    21     3    25    1
    22    25    26   ar
    23    26    27   ar
    24    27    28   ar
    25    28    31    1
    26    31    32    1
    27    31    34    1
    28    34    35    1
    29    34    36    1
    30    34    37    1
    31    31    38    1
    32    38    39    1
    33    38    40    1
    34    38    41    1
    35    28    29   ar
    36    29    30   ar
    37    20    21    1
    38    21    22    1
    39    22    20    1
    40    15     7    1
    41    30    25   ar
    42    14     9   ar
    43     3     4    1
    44    32    33    1
@<TRIPOS>MOLECULE
*****
 41 44 0 0 0
SMALL
GASTEIGER

@<TRIPOS>ATOM
      1 C         142.6488  140.8015  158.8217 C.2     1  UNL1        0.2485
      2 O         143.4661  140.8392  160.0788 O.2     1  UNL1       -0.2726
      3 N         141.2913  141.4390  158.7904 N.am    1  UNL1       -0.2823
      4 H         140.7548  141.4144  157.9653 H       1  UNL1        0.1549
      5 C         144.0982  142.2796  156.2990 C.2     1  UNL1        0.2508
      6 O         143.6597  143.2166  157.3852 O.2     1  UNL1       -0.2723
      7 N         143.8550  140.8059  156.4363 N.am    1  UNL1       -0.2636
      8 C         144.2353  139.7527  155.4382 C.3     1  UNL1        0.1207
      9 C         143.8042  138.4224  155.9809 C.ar    1  UNL1       -0.0030
     10 C         143.9170  137.0307  155.4330 C.ar    1  UNL1        0.0155
     11 C         143.3829  135.8699  156.2187 C.ar    1  UNL1        0.1054
     12 C         142.7361  136.1009  157.5522 C.ar    1  UNL1        0.0181
     13 C         142.6233  137.4926  158.1001 C.ar    1  UNL1       -0.0011
     14 C         143.1574  138.6534  157.3144 C.ar    1  UNL1        0.0022
     15 C         143.1888  140.1265  157.5959 C.3     1  UNL1        0.1751
     16 S         143.4957  134.4780  155.6708 S.O2    1  UNL1        0.0104
     17 C         143.6085  133.0862  155.1230 C.3     1  UNL1        0.1816
     18 O         143.9608  133.9884  157.0102 O.2     1  UNL1       -0.1686
     19 O         143.0306  134.9676  154.3314 O.2     1  UNL1       -0.1686
     20 C         144.7800  142.8165  155.0755 C.3     1  UNL1        0.1611
     21 C         144.9740  143.5121  153.7608 C.3     1  UNL1        0.0390
     22 C         143.6124  143.4599  154.3879 C.3     1  UNL1        0.0390
     23 C         146.7641  142.4720  156.7171 C.3     1  UNL1        0.1745
     24 O         146.1843  142.3595  155.3382 O.3     1  UNL1       -0.3472
     25 C         140.7513  142.1141  160.0162 C.ar    1  UNL1        0.0503
     26 C         140.0773  141.3036  161.0834 C.ar    1  UNL1        0.0144
     27 C         139.5373  141.9787  162.3093 C.ar    1  UNL1       -0.0002
     28 C         139.6713  143.4642  162.4679 C.ar    1  UNL1        0.0182
     29 C         140.3453  144.2747  161.4007 C.ar    1  UNL1       -0.0002
     30 C         140.8853  143.5996  160.1748 C.ar    1  UNL1        0.0144
     31 C         139.1313  144.1394  163.6937 C.3     1  UNL1        0.2827
     32 O         137.9630  144.6452  162.9005 O.3     1  UNL1       -0.3692
     33 H         137.3820  145.1659  163.4770 H       1  UNL1        0.2112
     34 C         138.5914  144.8145  164.9196 C.3     1  UNL1        0.4311
     35 F         138.0515  145.4896  166.1454 F       1  UNL1       -0.1669
     36 F         137.3978  143.9064  164.8939 F       1  UNL1       -0.1669
     37 F         139.2521  145.3953  165.0229 F       1  UNL1       -0.1669
     38 C         140.2997  143.6335  164.4868 C.3     1  UNL1        0.4311
     39 F         141.4680  143.1276  165.2801 F       1  UNL1       -0.1669
     40 F         139.8760  142.9691  164.8914 F       1  UNL1       -0.1669
     41 F         141.4230  144.5507  164.1037 F       1  UNL1       -0.1669
@<TRIPOS>BOND
     1    23    24    1
     2    24    20    1
     3    20     5    1
     4     5     6    2
     5     5     7   am
     6     7     8    1
     7     8     9    1
     8     9    10   ar
     9    10    11   ar
    10    11    16    1
    11    16    17    1
    12    16    18    2
    13    16    19    2
    14    11    12   ar
    15    12    13   ar
    16    13    14   ar
    17    14    15    1
    18    15     1    1
    19     1     2    2
    20     1     3   am
    21     3    25    1
    22    25    26   ar
    23    26    27   ar
    24    27    28   ar
    25    28    31    1
    26    31    32    1
    27    31    34    1
    28    34    35    1
    29    34    36    1
    30    34    37    1
    31    31    38    1
    32    38    39    1
    33    38    40    1
    34    38    41    1
    35    28    29   ar
    36    29    30   ar
    37    20    21    1
    38    21    22    1
    39    22    20    1
    40    15     7    1
    41    30    25   ar
    42    14     9   ar
    43     3     4    1
    44    32    33    1
@<TRIPOS>MOLECULE
*****
 41 44 0 0 0
SMALL
GASTEIGER

@<TRIPOS>ATOM
      1 C         141.1039  139.8348  161.2583 C.2     1  UNL1        0.2485
      2 O         140.0510  138.7913  161.0299 O.2     1  UNL1       -0.2726
      3 N         142.1672  140.0659  160.2257 N.am    1  UNL1       -0.2823
      4 H         142.8583  140.7508  160.3755 H       1  UNL1        0.1549
      5 C         140.2859  142.9844  161.5043 C.2     1  UNL1        0.2508
      6 O         140.2007  142.4391  160.1095 O.2     1  UNL1       -0.2723
      7 N         140.7178  142.0949  162.6322 N.am    1  UNL1       -0.2636
      8 C         140.8495  142.4969  164.0713 C.3     1  UNL1        0.1207
      9 C         141.3069  141.2977  164.8477 C.ar    1  UNL1       -0.0030
     10 C         141.6054  141.0990  166.3042 C.ar    1  UNL1        0.0155
     11 C         142.0549  139.7571  166.8013 C.ar    1  UNL1        0.1054
     12 C         142.2058  138.6139  165.8420 C.ar    1  UNL1        0.0181
     13 C         141.9073  138.8126  164.3856 C.ar    1  UNL1       -0.0011
     14 C         141.4579  140.1545  163.8884 C.ar    1  UNL1        0.0022
     15 C         141.0938  140.6472  162.5192 C.3     1  UNL1        0.1751
     16 S         142.3534  139.5584  168.2579 S.O2    1  UNL1        0.0104
     17 C         142.6519  139.3596  169.7143 C.3     1  UNL1        0.1816
     18 O         141.3099  140.5765  168.6107 O.2     1  UNL1       -0.1686
     19 O         143.3969  138.5403  167.9050 O.2     1  UNL1       -0.1686
     20 C         139.9392  144.4191  161.7710 C.3     1  UNL1        0.1611
     21 C         140.1125  145.8830  162.0488 C.3     1  UNL1        0.0390
     22 C         141.3161  145.0011  161.8952 C.3     1  UNL1        0.0390
     23 C         137.7241  143.3906  162.6572 C.3     1  UNL1        0.1745
     24 O         138.4418  144.3354  161.7396 O.3     1  UNL1       -0.3472
     25 C         142.1773  139.2535  158.9647 C.ar    1  UNL1        0.0503
     26 C         141.6037  139.8228  157.7011 C.ar    1  UNL1        0.0144
     27 C         141.6139  139.0104  156.4402 C.ar    1  UNL1       -0.0002
     28 C         142.1977  137.6287  156.4430 C.ar    1  UNL1        0.0182
     29 C         142.7713  137.0594  157.7067 C.ar    1  UNL1       -0.0002
     30 C         142.7611  137.8718  158.9676 C.ar    1  UNL1        0.0144
     31 C         142.2079  136.8162  155.1821 C.3     1  UNL1        0.2827
     32 O         143.6851  137.0402  155.0496 O.3     1  UNL1       -0.3692
     33 H         144.0097  136.5931  154.2523 H       1  UNL1        0.2112
     34 C         142.2180  136.0036  153.9213 C.3     1  UNL1        0.4311
     35 F         142.2281  135.1911  152.6604 F       1  UNL1       -0.1669
     36 F         142.5147  137.2407  153.1265 F       1  UNL1       -0.1669
     37 F         142.0448  135.2201  154.2963 F       1  UNL1       -0.1669
     38 C         140.7306  136.5921  155.3147 C.3     1  UNL1        0.4311
     39 F         139.2533  136.3680  155.4473 F       1  UNL1       -0.1669
     40 F         140.7653  136.0587  156.0210 F       1  UNL1       -0.1669
     41 F         140.1397  137.3942  154.1933 F       1  UNL1       -0.1669
@<TRIPOS>BOND
     1    23    24    1
     2    24    20    1
     3    20     5    1
     4     5     6    2
     5     5     7   am
     6     7     8    1
     7     8     9    1
     8     9    10   ar
     9    10    11   ar
    10    11    16    1
    11    16    17    1
    12    16    18    2
    13    16    19    2
    14    11    12   ar
    15    12    13   ar
    16    13    14   ar
    17    14    15    1
    18    15     1    1
    19     1     2    2
    20     1     3   am
    21     3    25    1
    22    25    26   ar
    23    26    27   ar
    24    27    28   ar
    25    28    31    1
    26    31    32    1
    27    31    34    1
    28    34    35    1
    29    34    36    1
    30    34    37    1
    31    31    38    1
    32    38    39    1
    33    38    40    1
    34    38    41    1
    35    28    29   ar
    36    29    30   ar
    37    20    21    1
    38    21    22    1
    39    22    20    1
    40    15     7    1
    41    30    25   ar
    42    14     9   ar
    43     3     4    1
    44    32    33    1
@<TRIPOS>MOLECULE
*****
 41 44 0 0 0
SMALL
GASTEIGER

@<TRIPOS>ATOM
      1 C         140.8989  139.2922  159.4775 C.2     1  UNL1        0.2485
      2 O         141.8423  140.4167  159.7865 O.2     1  UNL1       -0.2726
      3 N         140.3925  138.4131  160.5824 N.am    1  UNL1       -0.2823
      4 H         139.7733  137.6750  160.3797 H       1  UNL1        0.1549
      5 C         142.4222  137.3975  157.3005 C.2     1  UNL1        0.2508
      6 O         143.0956  137.4508  158.6398 O.2     1  UNL1       -0.2723
      7 N         141.1622  138.1759  157.0631 N.am    1  UNL1       -0.2636
      8 C         140.3810  138.2200  155.7833 C.3     1  UNL1        0.1207
      9 C         139.1981  139.1182  155.9930 C.ar    1  UNL1       -0.0030
     10 C         138.0818  139.5367  155.0826 C.ar    1  UNL1        0.0155
     11 C         137.0157  140.4663  155.5817 C.ar    1  UNL1        0.1054
     12 C         137.0657  140.9773  156.9911 C.ar    1  UNL1        0.0181
     13 C         138.1819  140.5587  157.9014 C.ar    1  UNL1       -0.0011
     14 C         139.2481  139.6291  157.4024 C.ar    1  UNL1        0.0022
     15 C         140.4620  139.0468  158.0637 C.3     1  UNL1        0.1751
     16 S         135.8993  140.8849  154.6714 S.O2    1  UNL1        0.0104
     17 C         134.7831  141.3036  153.7611 C.3     1  UNL1        0.1816
     18 O         135.3980  139.4717  154.6362 O.2     1  UNL1       -0.1686
     19 O         136.4007  142.2982  154.7065 O.2     1  UNL1       -0.1686
     20 C         143.0089  136.5658  156.1987 C.3     1  UNL1        0.1611
     21 C         143.1706  135.4533  155.2056 C.3     1  UNL1        0.0390
     22 C         141.9887  135.4685  156.1292 C.3     1  UNL1        0.0390
     23 C         144.0945  138.7813  155.3842 C.3     1  UNL1        0.1745
     24 O         144.2330  137.3744  155.8856 O.3     1  UNL1       -0.3472
     25 C         140.8294  138.6586  161.9962 C.ar    1  UNL1        0.0503
     26 C         141.4670  137.5546  162.7866 C.ar    1  UNL1        0.0144
     27 C         141.9040  137.8000  164.2004 C.ar    1  UNL1       -0.0002
     28 C         141.7033  139.1495  164.8238 C.ar    1  UNL1        0.0182
     29 C         141.0657  140.2535  164.0334 C.ar    1  UNL1       -0.0002
     30 C         140.6287  140.0080  162.6196 C.ar    1  UNL1        0.0144
     31 C         142.1402  139.3950  166.2376 C.3     1  UNL1        0.2827
     32 O         140.7270  139.7249  166.6171 O.3     1  UNL1       -0.3692
     33 H         140.6888  139.9457  167.5609 H       1  UNL1        0.2112
     34 C         142.5772  139.6406  167.6514 C.3     1  UNL1        0.4311
     35 F         143.0142  139.8861  169.0651 F       1  UNL1       -0.1669
     36 F         142.5807  141.1183  167.3937 F       1  UNL1       -0.1669
     37 F         142.6067  138.7922  167.9042 F       1  UNL1       -0.1669
     38 C         143.5534  139.0652  165.8580 C.3     1  UNL1        0.4311
     39 F         144.9667  138.7354  165.4784 F       1  UNL1       -0.1669
     40 F         143.7483  139.8428  165.4811 F       1  UNL1       -0.1669
     41 F         143.7413  137.6589  166.3449 F       1  UNL1       -0.1669
@<TRIPOS>BOND
     1    23    24    1
     2    24    20    1
     3    20     5    1
     4     5     6    2
     5     5     7   am
     6     7     8    1
     7     8     9    1
     8     9    10   ar
     9    10    11   ar
    10    11    16    1
    11    16    17    1
    12    16    18    2
    13    16    19    2
    14    11    12   ar
    15    12    13   ar
    16    13    14   ar
    17    14    15    1
    18    15     1    1
    19     1     2    2
    20     1     3   am
    21     3    25    1
    22    25    26   ar
    23    26    27   ar
    24    27    28   ar
    25    28    31    1
    26    31    32    1
    27    31    34    1
    28    34    35    1
    29    34    36    1
    30    34    37    1
    31    31    38    1
    32    38    39    1
    33    38    40    1
    34    38    41    1
    35    28    29   ar
    36    29    30   ar
    37    20    21    1
    38    21    22    1
    39    22    20    1
    40    15     7    1
    41    30    25   ar
    42    14     9   ar
    43     3     4    1
    44    32    33    1
@<TRIPOS>MOLECULE
*****
 41 44 0 0 0
SMALL
GASTEIGER

@<TRIPOS>ATOM
      1 C         135.5661  140.3336  155.3006 C.2     1  UNL1        0.2485
      2 O         134.7074  139.8646  154.1637 O.2     1  UNL1       -0.2726
      3 N         135.0153  140.3591  156.6956 N.am    1  UNL1       -0.2823
      4 H         135.5788  140.6670  157.4419 H       1  UNL1        0.1549
      5 C         138.1216  138.3802  154.7497 C.2     1  UNL1        0.2508
      6 O         136.8319  137.6485  154.9760 O.2     1  UNL1       -0.2723
      7 N         138.1502  139.8794  154.7894 N.am    1  UNL1       -0.2636
      8 C         139.3584  140.7440  154.5828 C.3     1  UNL1        0.1207
      9 C         138.9305  142.1762  154.7083 C.ar    1  UNL1       -0.0030
     10 C         139.6917  143.4642  154.6006 C.ar    1  UNL1        0.0155
     11 C         138.9801  144.7728  154.7770 C.ar    1  UNL1        0.1054
     12 C         137.5074  144.7934  155.0612 C.ar    1  UNL1        0.0181
     13 C         136.7463  143.5054  155.1689 C.ar    1  UNL1       -0.0011
     14 C         137.4578  142.1968  154.9925 C.ar    1  UNL1        0.0022
     15 C         136.9756  140.7773  155.0426 C.3     1  UNL1        0.1751
     16 S         139.7412  146.0610  154.6693 S.O2    1  UNL1        0.0104
     17 C         140.5023  147.3490  154.5615 C.3     1  UNL1        0.1816
     18 O         138.5236  146.8174  155.1109 O.2     1  UNL1       -0.1686
     19 O         140.9588  145.3045  154.2276 O.2     1  UNL1       -0.1686
     20 C         139.3826  137.6128  154.4838 C.3     1  UNL1        0.1611
     21 C         140.6036  136.7778  154.7329 C.3     1  UNL1        0.0390
     22 C         139.7052  137.1519  155.8743 C.3     1  UNL1        0.0390
     23 C         138.3340  137.4890  152.1100 C.3     1  UNL1        0.1745
     24 O         139.4980  137.8072  153.0009 O.3     1  UNL1       -0.3472
     25 C         133.6058  139.9154  156.9537 C.ar    1  UNL1        0.0503
     26 C         132.4652  140.6002  156.2608 C.ar    1  UNL1        0.0144
     27 C         131.0557  140.1566  156.5188 C.ar    1  UNL1       -0.0002
     28 C         130.7870  139.0281  157.4697 C.ar    1  UNL1        0.0182
     29 C         131.9275  138.3432  158.1625 C.ar    1  UNL1       -0.0002
     30 C         133.3370  138.7869  157.9045 C.ar    1  UNL1        0.0144
     31 C         129.3775  138.5843  157.7278 C.3     1  UNL1        0.2827
     32 O         129.4604  139.1315  159.1219 O.3     1  UNL1       -0.3692
     33 H         128.6189  138.9789  159.5797 H       1  UNL1        0.2112
     34 C         127.9681  138.1405  157.9857 C.3     1  UNL1        0.4311
     35 F         126.5586  137.6968  158.2437 F       1  UNL1       -0.1669
     36 F         127.5403  139.5727  158.1124 F       1  UNL1       -0.1669
     37 F         128.1172  137.2692  157.9301 F       1  UNL1       -0.1669
     38 C         129.2946  138.0371  156.3336 C.3     1  UNL1        0.4311
     39 F         129.2118  137.4898  154.9394 F       1  UNL1       -0.1669
     40 F         129.8692  137.3721  156.4443 F       1  UNL1       -0.1669
     41 F         128.3135  138.9402  155.6468 F       1  UNL1       -0.1669
@<TRIPOS>BOND
     1    23    24    1
     2    24    20    1
     3    20     5    1
     4     5     6    2
     5     5     7   am
     6     7     8    1
     7     8     9    1
     8     9    10   ar
     9    10    11   ar
    10    11    16    1
    11    16    17    1
    12    16    18    2
    13    16    19    2
    14    11    12   ar
    15    12    13   ar
    16    13    14   ar
    17    14    15    1
    18    15     1    1
    19     1     2    2
    20     1     3   am
    21     3    25    1
    22    25    26   ar
    23    26    27   ar
    24    27    28   ar
    25    28    31    1
    26    31    32    1
    27    31    34    1
    28    34    35    1
    29    34    36    1
    30    34    37    1
    31    31    38    1
    32    38    39    1
    33    38    40    1
    34    38    41    1
    35    28    29   ar
    36    29    30   ar
    37    20    21    1
    38    21    22    1
    39    22    20    1
    40    15     7    1
    41    30    25   ar
    42    14     9   ar
    43     3     4    1
    44    32    33    1
