@<TRIPOS>MOLECULE
*****
 34 38 0 0 0
SMALL
GASTEIGER

@<TRIPOS>ATOM
      1 N         142.3689  137.8259  157.4541 N.3     1  UNL1       -0.2690
      2 C         142.5581  137.4282  158.8880 C.3     1  UNL1        0.0724
      3 C         141.5678  137.8680  159.9252 C.3     1  UNL1        0.0195
      4 C         140.3883  138.7055  159.5284 C.3     1  UNL1        0.0300
      5 C         140.1991  139.1032  158.0946 C.3     1  UNL1        0.0195
      6 C         141.1895  138.6633  157.0574 C.3     1  UNL1        0.0724
      7 C         139.1669  139.5410  159.2831 C.3     1  UNL1        0.0873
      8 C         138.4691  139.7389  160.5961 C.2     1  UNL1        0.2294
      9 O         137.2035  140.5139  160.8140 O.2     1  UNL1       -0.2745
     10 N         139.2593  139.0258  161.6530 N.am    1  UNL1       -0.2586
     11 C         140.4454  138.3871  160.9932 C.3     1  UNL1        0.0986
     12 C         138.9226  138.9625  163.1133 C.ar    1  UNL1        0.0538
     13 C         138.5142  140.2075  163.8436 C.ar    1  UNL1        0.0149
     14 C         138.1775  140.1441  165.3039 C.ar    1  UNL1        0.0024
     15 C         138.2492  138.8358  166.0340 C.ar    1  UNL1        0.0141
     16 C         138.6576  137.5908  165.3038 C.ar    1  UNL1        0.0024
     17 C         138.9943  137.6541  163.8434 C.ar    1  UNL1        0.0149
     18 C         137.9125  138.7724  167.4944 C.2     1  UNL1        0.0729
     19 O         136.7909  137.8962  167.9682 O.co2   1  UNL1       -0.5446
     20 O         138.6973  139.5851  168.4810 O.co2   1  UNL1       -0.5446
     21 C         143.3593  137.3860  156.4169 C.3     1  UNL1        0.0992
     22 C         144.4683  133.3259  157.6481 C.3     1  UNL1        0.0046
     23 C         144.1359  132.2536  156.6532 C.3     1  UNL1        0.0254
     24 C         144.7565  131.4212  157.7358 C.3     1  UNL1        0.0046
     25 C         144.0190  130.8923  156.0343 C.3     1  UNL1        0.0515
     26 C         143.3970  130.7358  154.6783 C.3     1  UNL1        0.2058
     27 O         142.8919  131.9405  153.9413 O.3     1  UNL1       -0.4749
     28 C         143.0087  133.3019  154.5602 C.ar    1  UNL1        0.1449
     29 C         142.5036  134.5067  153.8231 C.ar    1  UNL1        0.0909
     30 CL        141.8816  134.3502  152.4671 Cl      1  UNL1       -0.0791
     31 C         142.6205  135.8681  154.4420 C.ar    1  UNL1        0.0115
     32 C         143.2424  136.0246  155.7980 C.ar    1  UNL1       -0.0054
     33 C         143.7476  134.8198  156.5350 C.ar    1  UNL1       -0.0042
     34 C         143.6307  133.4584  155.9161 C.ar    1  UNL1        0.0119
@<TRIPOS>UNITY_ATOM_ATTR
19 1
charge -1
@<TRIPOS>BOND
     1    22    23    1
     2    23    24    1
     3    23    25    1
     4    25    26    1
     5    26    27    1
     6    27    28    1
     7    28    29   ar
     8    29    30    1
     9    29    31   ar
    10    31    32   ar
    11    32    21    1
    12    21     1    1
    13     1     2    1
    14     2     3    1
    15     3     4    1
    16     4     5    1
    17     5     6    1
    18     4     7    1
    19     7     8    1
    20     8     9    2
    21     8    10   am
    22    10    12    1
    23    12    13   ar
    24    13    14   ar
    25    14    15   ar
    26    15    18    1
    27    18    19   ar
    28    18    20   ar
    29    15    16   ar
    30    16    17   ar
    31    10    11    1
    32    32    33   ar
    33    33    34   ar
    34    34    23    1
    35    34    28   ar
    36     6     1    1
    37    17    12   ar
    38    11     4    1
@<TRIPOS>MOLECULE
*****
 34 38 0 0 0
SMALL
GASTEIGER

@<TRIPOS>ATOM
      1 N         142.3513  138.9207  160.6654 N.3     1  UNL1       -0.2690
      2 C         142.8079  139.9178  161.6889 C.3     1  UNL1        0.0724
      3 C         142.0582  140.0643  162.9798 C.3     1  UNL1        0.0195
      4 C         140.8519  139.2137  163.2472 C.3     1  UNL1        0.0300
      5 C         140.3954  138.2167  162.2238 C.3     1  UNL1        0.0195
      6 C         141.1451  138.0702  160.9328 C.3     1  UNL1        0.0724
      7 C         139.6346  138.4368  163.6529 C.3     1  UNL1        0.0873
      8 C         139.2182  138.9057  165.0155 C.2     1  UNL1        0.2294
      9 O         138.0475  138.3973  165.8034 O.2     1  UNL1       -0.2745
     10 N         140.1782  139.9724  165.4520 N.am    1  UNL1       -0.2586
     11 C         141.1879  140.1628  164.3592 C.3     1  UNL1        0.0986
     12 C         140.1360  140.7179  166.7530 C.ar    1  UNL1        0.0538
     13 C         140.4833  142.1766  166.7931 C.ar    1  UNL1        0.0149
     14 C         140.4411  142.9221  168.0941 C.ar    1  UNL1        0.0024
     15 C         140.0515  142.2089  169.3548 C.ar    1  UNL1        0.0141
     16 C         139.7042  140.7503  169.3147 C.ar    1  UNL1        0.0024
     17 C         139.7464  140.0047  168.0137 C.ar    1  UNL1        0.0149
     18 C         140.0093  142.9544  170.6558 C.2     1  UNL1        0.0729
     19 O         139.6659  144.4145  170.6728 O.co2   1  UNL1       -0.5446
     20 O         140.3104  142.2398  171.9398 O.co2   1  UNL1       -0.5446
     21 C         143.1010  138.7743  159.3745 C.3     1  UNL1        0.0992
     22 C         143.2991  135.0791  157.0215 C.3     1  UNL1        0.0046
     23 C         142.3673  135.0300  155.8470 C.3     1  UNL1        0.0254
     24 C         143.0268  133.6895  155.7124 C.3     1  UNL1        0.0046
     25 C         141.6645  134.5155  154.6259 C.3     1  UNL1        0.0515
     26 C         140.6258  135.3584  153.9472 C.3     1  UNL1        0.2058
     27 O         140.2899  136.7159  154.4897 O.3     1  UNL1       -0.4749
     28 C         140.9927  137.2305  155.7108 C.ar    1  UNL1        0.1449
     29 C         140.6568  138.5880  156.2534 C.ar    1  UNL1        0.0909
     30 CL        139.6181  139.4310  155.5747 Cl      1  UNL1       -0.0791
     31 C         141.3596  139.1026  157.4746 C.ar    1  UNL1        0.0115
     32 C         142.3982  138.2596  158.1532 C.ar    1  UNL1       -0.0054
     33 C         142.7342  136.9022  157.6107 C.ar    1  UNL1       -0.0042
     34 C         142.0314  136.3875  156.3895 C.ar    1  UNL1        0.0119
@<TRIPOS>UNITY_ATOM_ATTR
19 1
charge -1
@<TRIPOS>BOND
     1    22    23    1
     2    23    24    1
     3    23    25    1
     4    25    26    1
     5    26    27    1
     6    27    28    1
     7    28    29   ar
     8    29    30    1
     9    29    31   ar
    10    31    32   ar
    11    32    21    1
    12    21     1    1
    13     1     2    1
    14     2     3    1
    15     3     4    1
    16     4     5    1
    17     5     6    1
    18     4     7    1
    19     7     8    1
    20     8     9    2
    21     8    10   am
    22    10    12    1
    23    12    13   ar
    24    13    14   ar
    25    14    15   ar
    26    15    18    1
    27    18    19   ar
    28    18    20   ar
    29    15    16   ar
    30    16    17   ar
    31    10    11    1
    32    32    33   ar
    33    33    34   ar
    34    34    23    1
    35    34    28   ar
    36     6     1    1
    37    17    12   ar
    38    11     4    1
@<TRIPOS>MOLECULE
*****
 34 38 0 0 0
SMALL
GASTEIGER

@<TRIPOS>ATOM
      1 N         141.0921  144.7542  160.2121 N.3     1  UNL1       -0.2690
      2 C         141.6124  143.5837  160.9928 C.3     1  UNL1        0.0724
      3 C         141.1685  143.3702  162.4096 C.3     1  UNL1        0.0195
      4 C         140.2042  144.3272  163.0457 C.3     1  UNL1        0.0300
      5 C         139.6840  145.4975  162.2650 C.3     1  UNL1        0.0195
      6 C         140.1279  145.7111  160.8482 C.3     1  UNL1        0.0724
      7 C         139.2499  145.1953  163.8110 C.3     1  UNL1        0.0873
      8 C         139.0925  144.6127  165.1842 C.2     1  UNL1        0.2294
      9 O         138.2296  145.1618  166.2814 O.2     1  UNL1       -0.2745
     10 N         139.9495  143.3845  165.2677 N.am    1  UNL1       -0.2586
     11 C         140.6367  143.2080  163.9461 C.3     1  UNL1        0.0986
     12 C         140.0941  142.4898  166.4630 C.ar    1  UNL1        0.0538
     13 C         139.7653  141.0305  166.3517 C.ar    1  UNL1        0.0149
     14 C         139.9100  140.1359  167.5470 C.ar    1  UNL1        0.0024
     15 C         140.3834  140.7005  168.8535 C.ar    1  UNL1        0.0141
     16 C         140.7122  142.1598  168.9648 C.ar    1  UNL1        0.0024
     17 C         140.5675  143.0545  167.7695 C.ar    1  UNL1        0.0149
     18 C         140.5280  139.8058  170.0488 C.2     1  UNL1        0.0729
     19 O         139.3870  139.6473  171.0095 O.co2   1  UNL1       -0.5446
     20 O         141.8137  139.0698  170.2835 O.co2   1  UNL1       -0.5446
     21 C         141.5361  144.9677  158.7953 C.3     1  UNL1        0.0992
     22 C         138.4316  142.1551  157.4984 C.3     1  UNL1        0.0046
     23 C         137.6572  142.5865  156.2884 C.3     1  UNL1        0.0254
     24 C         136.9921  141.2714  156.5680 C.3     1  UNL1        0.0046
     25 C         136.6518  142.5613  155.1755 C.3     1  UNL1        0.0515
     26 C         136.5805  143.7012  154.2032 C.3     1  UNL1        0.2058
     27 O         137.5145  144.8665  154.3437 O.3     1  UNL1       -0.4749
     28 C         138.5198  144.8918  155.4566 C.ar    1  UNL1        0.1449
     29 C         139.4539  146.0570  155.5972 C.ar    1  UNL1        0.0909
     30 CL        139.3825  147.1970  154.6249 Cl      1  UNL1       -0.0791
     31 C         140.4593  146.0823  156.7101 C.ar    1  UNL1        0.0115
     32 C         140.5306  144.9424  157.6824 C.ar    1  UNL1       -0.0054
     33 C         139.5967  143.7771  157.5418 C.ar    1  UNL1       -0.0042
     34 C         138.5912  143.7518  156.4289 C.ar    1  UNL1        0.0119
@<TRIPOS>UNITY_ATOM_ATTR
19 1
charge -1
@<TRIPOS>BOND
     1    22    23    1
     2    23    24    1
     3    23    25    1
     4    25    26    1
     5    26    27    1
     6    27    28    1
     7    28    29   ar
     8    29    30    1
     9    29    31   ar
    10    31    32   ar
    11    32    21    1
    12    21     1    1
    13     1     2    1
    14     2     3    1
    15     3     4    1
    16     4     5    1
    17     5     6    1
    18     4     7    1
    19     7     8    1
    20     8     9    2
    21     8    10   am
    22    10    12    1
    23    12    13   ar
    24    13    14   ar
    25    14    15   ar
    26    15    18    1
    27    18    19   ar
    28    18    20   ar
    29    15    16   ar
    30    16    17   ar
    31    10    11    1
    32    32    33   ar
    33    33    34   ar
    34    34    23    1
    35    34    28   ar
    36     6     1    1
    37    17    12   ar
    38    11     4    1
@<TRIPOS>MOLECULE
*****
 34 38 0 0 0
SMALL
GASTEIGER

@<TRIPOS>ATOM
      1 N         138.4341  140.1162  160.4248 N.3     1  UNL1       -0.2690
      2 C         137.9185  140.9806  161.5371 C.3     1  UNL1        0.0724
      3 C         138.5420  140.9014  162.8991 C.3     1  UNL1        0.0195
      4 C         139.6810  139.9579  163.1488 C.3     1  UNL1        0.0300
      5 C         140.1966  139.0935  162.0366 C.3     1  UNL1        0.0195
      6 C         139.5731  139.1727  160.6746 C.3     1  UNL1        0.0724
      7 C         140.8203  139.0669  163.5466 C.3     1  UNL1        0.0873
      8 C         141.1181  139.3141  164.9958 C.2     1  UNL1        0.2294
      9 O         142.1839  138.6366  165.8050 O.2     1  UNL1       -0.2745
     10 N         140.1628  140.3579  165.4937 N.am    1  UNL1       -0.2586
     11 C         139.2746  140.7558  164.3523 C.3     1  UNL1        0.0986
     12 C         140.1056  140.9074  166.8883 C.ar    1  UNL1        0.0538
     13 C         139.5152  140.0848  167.9950 C.ar    1  UNL1        0.0149
     14 C         139.4581  140.6343  169.3895 C.ar    1  UNL1        0.0024
     15 C         139.9914  142.0064  169.6774 C.ar    1  UNL1        0.0141
     16 C         140.5818  142.8290  168.5707 C.ar    1  UNL1        0.0024
     17 C         140.6389  142.2795  167.1762 C.ar    1  UNL1        0.0149
     18 C         139.9342  142.5559  171.0720 C.2     1  UNL1        0.0729
     19 O         140.8952  142.0623  172.1126 O.co2   1  UNL1       -0.5446
     20 O         138.9162  143.5991  171.4259 O.co2   1  UNL1       -0.5446
     21 C         137.8107  140.1954  159.0628 C.3     1  UNL1        0.0992
     22 C         140.4895  143.6614  159.2644 C.3     1  UNL1        0.0046
     23 C         140.3641  144.6213  158.1185 C.3     1  UNL1        0.0254
     24 C         141.4371  145.3039  158.9140 C.3     1  UNL1        0.0046
     25 C         140.6113  145.8182  157.2490 C.3     1  UNL1        0.0515
     26 C         139.8291  145.9992  155.9819 C.3     1  UNL1        0.2058
     27 O         138.7997  144.9832  155.5845 O.3     1  UNL1       -0.4749
     28 C         138.5525  143.7863  156.4540 C.ar    1  UNL1        0.1449
     29 C         137.5230  142.7702  156.0566 C.ar    1  UNL1        0.0909
     30 CL        136.7408  142.9512  154.7896 Cl      1  UNL1       -0.0791
     31 C         137.2757  141.5733  156.9262 C.ar    1  UNL1        0.0115
     32 C         138.0580  141.3924  158.1932 C.ar    1  UNL1       -0.0054
     33 C         139.0874  142.4083  158.5907 C.ar    1  UNL1       -0.0042
     34 C         139.3347  143.6053  157.7211 C.ar    1  UNL1        0.0119
@<TRIPOS>UNITY_ATOM_ATTR
19 1
charge -1
@<TRIPOS>BOND
     1    22    23    1
     2    23    24    1
     3    23    25    1
     4    25    26    1
     5    26    27    1
     6    27    28    1
     7    28    29   ar
     8    29    30    1
     9    29    31   ar
    10    31    32   ar
    11    32    21    1
    12    21     1    1
    13     1     2    1
    14     2     3    1
    15     3     4    1
    16     4     5    1
    17     5     6    1
    18     4     7    1
    19     7     8    1
    20     8     9    2
    21     8    10   am
    22    10    12    1
    23    12    13   ar
    24    13    14   ar
    25    14    15   ar
    26    15    18    1
    27    18    19   ar
    28    18    20   ar
    29    15    16   ar
    30    16    17   ar
    31    10    11    1
    32    32    33   ar
    33    33    34   ar
    34    34    23    1
    35    34    28   ar
    36     6     1    1
    37    17    12   ar
    38    11     4    1
@<TRIPOS>MOLECULE
*****
 34 38 0 0 0
SMALL
GASTEIGER

@<TRIPOS>ATOM
      1 N         141.1059  138.6901  160.6429 N.3     1  UNL1       -0.2690
      2 C         140.3286  139.6673  161.4741 C.3     1  UNL1        0.0724
      3 C         140.6500  139.8363  162.9295 C.3     1  UNL1        0.0195
      4 C         141.7488  139.0280  163.5536 C.3     1  UNL1        0.0300
      5 C         142.5261  138.0509  162.7224 C.3     1  UNL1        0.0195
      6 C         142.2046  137.8819  161.2670 C.3     1  UNL1        0.0724
      7 C         142.8139  138.2934  164.3124 C.3     1  UNL1        0.0873
      8 C         142.7849  138.7726  165.7335 C.2     1  UNL1        0.2294
      9 O         143.6815  138.3035  166.8407 O.2     1  UNL1       -0.2745
     10 N         141.7018  139.8034  165.8531 N.am    1  UNL1       -0.2586
     11 C         141.0613  139.9613  164.5058 C.3     1  UNL1        0.0986
     12 C         141.3251  140.5460  167.1007 C.ar    1  UNL1        0.0538
     13 C         140.1022  140.1456  167.8716 C.ar    1  UNL1        0.0149
     14 C         139.7256  140.8882  169.1192 C.ar    1  UNL1        0.0024
     15 C         140.5718  142.0312  169.5961 C.ar    1  UNL1        0.0141
     16 C         141.7947  142.4316  168.8252 C.ar    1  UNL1        0.0024
     17 C         142.1714  141.6890  167.5775 C.ar    1  UNL1        0.0149
     18 C         140.1952  142.7738  170.8438 C.2     1  UNL1        0.0729
     19 O         139.5628  144.1305  170.7471 O.co2   1  UNL1       -0.5446
     20 O         140.4510  142.1597  172.1881 O.co2   1  UNL1       -0.5446
     21 C         140.7845  138.5211  159.1875 C.3     1  UNL1        0.0992
     22 C         143.9491  141.4990  158.5975 C.3     1  UNL1        0.0046
     23 C         144.7890  141.2905  157.3722 C.3     1  UNL1        0.0254
     24 C         145.4352  142.5268  157.9238 C.3     1  UNL1        0.0046
     25 C         145.8532  141.5114  156.3386 C.3     1  UNL1        0.0515
     26 C         145.9796  140.5685  155.1788 C.3     1  UNL1        0.2058
     27 O         145.0418  139.4047  155.0528 O.3     1  UNL1       -0.4749
     28 C         143.9775  139.1838  156.0865 C.ar    1  UNL1        0.1449
     29 C         143.0396  138.0200  155.9604 C.ar    1  UNL1        0.0909
     30 CL        143.1660  137.0771  154.8007 Cl      1  UNL1       -0.0791
     31 C         141.9753  137.7991  156.9941 C.ar    1  UNL1        0.0115
     32 C         141.8489  138.7420  158.1538 C.ar    1  UNL1       -0.0054
     33 C         142.7868  139.9058  158.2798 C.ar    1  UNL1       -0.0042
     34 C         143.8511  140.1268  157.2462 C.ar    1  UNL1        0.0119
@<TRIPOS>UNITY_ATOM_ATTR
19 1
charge -1
@<TRIPOS>BOND
     1    22    23    1
     2    23    24    1
     3    23    25    1
     4    25    26    1
     5    26    27    1
     6    27    28    1
     7    28    29   ar
     8    29    30    1
     9    29    31   ar
    10    31    32   ar
    11    32    21    1
    12    21     1    1
    13     1     2    1
    14     2     3    1
    15     3     4    1
    16     4     5    1
    17     5     6    1
    18     4     7    1
    19     7     8    1
    20     8     9    2
    21     8    10   am
    22    10    12    1
    23    12    13   ar
    24    13    14   ar
    25    14    15   ar
    26    15    18    1
    27    18    19   ar
    28    18    20   ar
    29    15    16   ar
    30    16    17   ar
    31    10    11    1
    32    32    33   ar
    33    33    34   ar
    34    34    23    1
    35    34    28   ar
    36     6     1    1
    37    17    12   ar
    38    11     4    1
@<TRIPOS>MOLECULE
*****
 34 38 0 0 0
SMALL
GASTEIGER

@<TRIPOS>ATOM
      1 N         142.1233  138.9980  160.5898 N.3     1  UNL1       -0.2690
      2 C         142.5546  140.0337  161.5855 C.3     1  UNL1        0.0724
      3 C         141.8697  140.1251  162.9169 C.3     1  UNL1        0.0195
      4 C         140.7536  139.1807  163.2526 C.3     1  UNL1        0.0300
      5 C         140.3224  138.1451  162.2568 C.3     1  UNL1        0.0195
      6 C         141.0073  138.0538  160.9254 C.3     1  UNL1        0.0724
      7 C         139.6283  138.3097  163.7268 C.3     1  UNL1        0.0873
      8 C         139.2530  138.7498  165.1108 C.2     1  UNL1        0.2294
      9 O         138.1739  138.1518  165.9640 O.2     1  UNL1       -0.2745
     10 N         140.1463  139.8929  165.4919 N.am    1  UNL1       -0.2586
     11 C         141.0738  140.1593  164.3435 C.3     1  UNL1        0.0986
     12 C         140.1174  140.6387  166.7930 C.ar    1  UNL1        0.0538
     13 C         140.5752  142.0660  166.8497 C.ar    1  UNL1        0.0149
     14 C         140.5463  142.8119  168.1508 C.ar    1  UNL1        0.0024
     15 C         140.0594  142.1304  169.3952 C.ar    1  UNL1        0.0141
     16 C         139.6016  140.7031  169.3385 C.ar    1  UNL1        0.0024
     17 C         139.6306  139.9573  168.0374 C.ar    1  UNL1        0.0149
     18 C         140.0305  142.8763  170.6964 C.2     1  UNL1        0.0729
     19 O         140.3758  142.1697  171.9737 O.co2   1  UNL1       -0.5446
     20 O         139.6561  144.3285  170.7202 O.co2   1  UNL1       -0.5446
     21 C         142.8082  138.9067  159.2584 C.3     1  UNL1        0.0992
     22 C         139.4582  140.0648  156.6764 C.3     1  UNL1        0.0046
     23 C         139.1090  139.0664  155.6127 C.3     1  UNL1        0.0254
     24 C         138.0854  140.1240  155.3235 C.3     1  UNL1        0.0046
     25 C         138.4044  138.4354  154.4486 C.3     1  UNL1        0.0515
     26 C         138.8446  137.0935  153.9431 C.3     1  UNL1        0.2058
     27 O         139.9894  136.3826  154.6017 O.3     1  UNL1       -0.4749
     28 C         140.6941  137.0136  155.7659 C.ar    1  UNL1        0.1449
     29 C         141.8390  136.3027  156.4246 C.ar    1  UNL1        0.0909
     30 CL        142.2793  134.9608  155.9191 Cl      1  UNL1       -0.0791
     31 C         142.5437  136.9337  157.5887 C.ar    1  UNL1        0.0115
     32 C         142.1035  138.2756  158.0942 C.ar    1  UNL1       -0.0054
     33 C         140.9586  138.9865  157.4355 C.ar    1  UNL1       -0.0042
     34 C         140.2539  138.3555  156.2714 C.ar    1  UNL1        0.0119
@<TRIPOS>UNITY_ATOM_ATTR
19 1
charge -1
@<TRIPOS>BOND
     1    22    23    1
     2    23    24    1
     3    23    25    1
     4    25    26    1
     5    26    27    1
     6    27    28    1
     7    28    29   ar
     8    29    30    1
     9    29    31   ar
    10    31    32   ar
    11    32    21    1
    12    21     1    1
    13     1     2    1
    14     2     3    1
    15     3     4    1
    16     4     5    1
    17     5     6    1
    18     4     7    1
    19     7     8    1
    20     8     9    2
    21     8    10   am
    22    10    12    1
    23    12    13   ar
    24    13    14   ar
    25    14    15   ar
    26    15    18    1
    27    18    19   ar
    28    18    20   ar
    29    15    16   ar
    30    16    17   ar
    31    10    11    1
    32    32    33   ar
    33    33    34   ar
    34    34    23    1
    35    34    28   ar
    36     6     1    1
    37    17    12   ar
    38    11     4    1
@<TRIPOS>MOLECULE
*****
 34 38 0 0 0
SMALL
GASTEIGER

@<TRIPOS>ATOM
      1 N         140.3793  139.4969  159.6315 N.3     1  UNL1       -0.2690
      2 C         141.2243  140.1987  160.6530 C.3     1  UNL1        0.0724
      3 C         141.0343  139.9067  162.1120 C.3     1  UNL1        0.0195
      4 C         139.9993  138.9130  162.5495 C.3     1  UNL1        0.0300
      5 C         139.1543  138.2112  161.5279 C.3     1  UNL1        0.0195
      6 C         139.3443  138.5032  160.0689 C.3     1  UNL1        0.0724
      7 C         139.0095  137.9495  163.1343 C.3     1  UNL1        0.0873
      8 C         139.1642  137.9743  164.6261 C.2     1  UNL1        0.2294
      9 O         138.3726  137.1628  165.6082 O.2     1  UNL1       -0.2745
     10 N         140.2496  138.9532  164.9633 N.am    1  UNL1       -0.2586
     11 C         140.7658  139.5334  163.6799 C.3     1  UNL1        0.0986
     12 C         140.7339  139.2924  166.3418 C.ar    1  UNL1        0.0538
     13 C         139.7680  139.7946  167.3737 C.ar    1  UNL1        0.0149
     14 C         140.2523  140.1338  168.7522 C.ar    1  UNL1        0.0024
     15 C         141.7025  139.9708  169.0989 C.ar    1  UNL1        0.0141
     16 C         142.6685  139.4685  168.0670 C.ar    1  UNL1        0.0024
     17 C         142.1842  139.1293  166.6885 C.ar    1  UNL1        0.0149
     18 C         142.1869  140.3100  170.4775 C.2     1  UNL1        0.0729
     19 O         143.5956  139.9863  170.8783 O.co2   1  UNL1       -0.5446
     20 O         141.2625  140.9729  171.4552 O.co2   1  UNL1       -0.5446
     21 C         140.5693  139.7888  158.1725 C.3     1  UNL1        0.0992
     22 C         143.0249  136.2357  157.4135 C.3     1  UNL1        0.0046
     23 C         142.5709  135.3917  156.2596 C.3     1  UNL1        0.0254
     24 C         143.7677  134.6039  156.7036 C.3     1  UNL1        0.0046
     25 C         142.5326  134.2740  155.2599 C.3     1  UNL1        0.0515
     26 C         141.4551  134.2373  154.2170 C.3     1  UNL1        0.2058
     27 O         140.4160  135.3181  154.1737 O.3     1  UNL1       -0.4749
     28 C         140.4543  136.4357  155.1734 C.ar    1  UNL1        0.1449
     29 C         139.4151  137.5167  155.1302 C.ar    1  UNL1        0.0909
     30 CL        138.3377  137.4799  154.0872 Cl      1  UNL1       -0.0791
     31 C         139.4535  138.6343  156.1298 C.ar    1  UNL1        0.0115
     32 C         140.5310  138.6711  157.1728 C.ar    1  UNL1       -0.0054
     33 C         141.5701  137.5902  157.2160 C.ar    1  UNL1       -0.0042
     34 C         141.5318  136.4725  156.2163 C.ar    1  UNL1        0.0119
@<TRIPOS>UNITY_ATOM_ATTR
19 1
charge -1
@<TRIPOS>BOND
     1    22    23    1
     2    23    24    1
     3    23    25    1
     4    25    26    1
     5    26    27    1
     6    27    28    1
     7    28    29   ar
     8    29    30    1
     9    29    31   ar
    10    31    32   ar
    11    32    21    1
    12    21     1    1
    13     1     2    1
    14     2     3    1
    15     3     4    1
    16     4     5    1
    17     5     6    1
    18     4     7    1
    19     7     8    1
    20     8     9    2
    21     8    10   am
    22    10    12    1
    23    12    13   ar
    24    13    14   ar
    25    14    15   ar
    26    15    18    1
    27    18    19   ar
    28    18    20   ar
    29    15    16   ar
    30    16    17   ar
    31    10    11    1
    32    32    33   ar
    33    33    34   ar
    34    34    23    1
    35    34    28   ar
    36     6     1    1
    37    17    12   ar
    38    11     4    1
@<TRIPOS>MOLECULE
*****
 34 38 0 0 0
SMALL
GASTEIGER

@<TRIPOS>ATOM
      1 N         139.9506  140.1052  160.2891 N.3     1  UNL1       -0.2690
      2 C         140.7745  140.9196  161.2420 C.3     1  UNL1        0.0724
      3 C         140.5064  140.8474  162.7161 C.3     1  UNL1        0.0195
      4 C         139.4143  139.9609  163.2372 C.3     1  UNL1        0.0300
      5 C         138.5904  139.1466  162.2843 C.3     1  UNL1        0.0195
      6 C         138.8586  139.2187  160.8102 C.3     1  UNL1        0.0724
      7 C         138.3618  139.1241  163.9020 C.3     1  UNL1        0.0873
      8 C         138.4486  139.3589  165.3810 C.2     1  UNL1        0.2294
      9 O         137.5816  138.7233  166.4270 O.2     1  UNL1       -0.2745
     10 N         139.5548  140.3408  165.6303 N.am    1  UNL1       -0.2586
     11 C         140.1516  140.7129  164.3054 C.3     1  UNL1        0.0986
     12 C         139.9880  140.8597  166.9693 C.ar    1  UNL1        0.0538
     13 C         140.1040  139.9227  168.1350 C.ar    1  UNL1        0.0149
     14 C         140.5373  140.4416  169.4740 C.ar    1  UNL1        0.0024
     15 C         140.8546  141.8973  169.6474 C.ar    1  UNL1        0.0141
     16 C         140.7387  142.8342  168.4817 C.ar    1  UNL1        0.0024
     17 C         140.3054  142.3154  167.1427 C.ar    1  UNL1        0.0149
     18 C         141.2879  142.4162  170.9865 C.2     1  UNL1        0.0729
     19 O         140.4467  142.1541  172.2004 O.co2   1  UNL1       -0.5446
     20 O         142.5624  143.1972  171.1116 O.co2   1  UNL1       -0.5446
     21 C         140.2187  140.1774  158.8150 C.3     1  UNL1        0.0992
     22 C         140.8870  144.1393  157.0581 C.3     1  UNL1        0.0046
     23 C         139.7445  144.6665  156.2414 C.3     1  UNL1        0.0254
     24 C         140.7110  145.8053  156.1030 C.3     1  UNL1        0.0046
     25 C         138.9378  145.5892  155.3767 C.3     1  UNL1        0.0515
     26 C         137.5613  145.1900  154.9340 C.3     1  UNL1        0.2058
     27 O         136.9916  143.8681  155.3560 O.3     1  UNL1       -0.4749
     28 C         137.7984  142.9455  156.2207 C.ar    1  UNL1        0.1449
     29 C         137.2287  141.6236  156.6428 C.ar    1  UNL1        0.0909
     30 CL        135.8522  141.2244  156.2001 Cl      1  UNL1       -0.0791
     31 C         138.0354  140.7009  157.5075 C.ar    1  UNL1        0.0115
     32 C         139.4119  141.1001  157.9502 C.ar    1  UNL1       -0.0054
     33 C         139.9816  142.4219  157.5282 C.ar    1  UNL1       -0.0042
     34 C         139.1748  143.3447  156.6634 C.ar    1  UNL1        0.0119
@<TRIPOS>UNITY_ATOM_ATTR
19 1
charge -1
@<TRIPOS>BOND
     1    22    23    1
     2    23    24    1
     3    23    25    1
     4    25    26    1
     5    26    27    1
     6    27    28    1
     7    28    29   ar
     8    29    30    1
     9    29    31   ar
    10    31    32   ar
    11    32    21    1
    12    21     1    1
    13     1     2    1
    14     2     3    1
    15     3     4    1
    16     4     5    1
    17     5     6    1
    18     4     7    1
    19     7     8    1
    20     8     9    2
    21     8    10   am
    22    10    12    1
    23    12    13   ar
    24    13    14   ar
    25    14    15   ar
    26    15    18    1
    27    18    19   ar
    28    18    20   ar
    29    15    16   ar
    30    16    17   ar
    31    10    11    1
    32    32    33   ar
    33    33    34   ar
    34    34    23    1
    35    34    28   ar
    36     6     1    1
    37    17    12   ar
    38    11     4    1
@<TRIPOS>MOLECULE
*****
 34 38 0 0 0
SMALL
GASTEIGER

@<TRIPOS>ATOM
      1 N         140.1056  139.2517  160.1977 N.3     1  UNL1       -0.2690
      2 C         140.5761  140.3727  161.0764 C.3     1  UNL1        0.0724
      3 C         140.2920  140.3412  162.5489 C.3     1  UNL1        0.0195
      4 C         139.5374  139.1887  163.1427 C.3     1  UNL1        0.0300
      5 C         139.0670  138.0678  162.2640 C.3     1  UNL1        0.0195
      6 C         139.3511  138.0993  160.7915 C.3     1  UNL1        0.0724
      7 C         138.7982  138.1084  163.8752 C.3     1  UNL1        0.0873
      8 C         138.7465  138.4841  165.3265 C.2     1  UNL1        0.2294
      9 O         138.1010  137.6872  166.4210 O.2     1  UNL1       -0.2745
     10 N         139.4538  139.7966  165.4910 N.am    1  UNL1       -0.2586
     11 C         139.9426  140.2322  164.1414 C.3     1  UNL1        0.0986
     12 C         139.6396  140.5427  166.7789 C.ar    1  UNL1        0.0538
     13 C         139.3015  139.8833  168.0831 C.ar    1  UNL1        0.0149
     14 C         139.4874  140.6294  169.3711 C.ar    1  UNL1        0.0024
     15 C         140.0113  142.0348  169.3548 C.ar    1  UNL1        0.0141
     16 C         140.3494  142.6941  168.0506 C.ar    1  UNL1        0.0024
     17 C         140.1636  141.9481  166.7626 C.ar    1  UNL1        0.0149
     18 C         140.1972  142.7809  170.6428 C.2     1  UNL1        0.0729
     19 O         140.6450  142.0512  171.8744 O.co2   1  UNL1       -0.5446
     20 O         139.9352  144.2567  170.6991 O.co2   1  UNL1       -0.5446
     21 C         140.3898  139.2831  158.7252 C.3     1  UNL1        0.0992
     22 C         136.7985  140.6858  156.6358 C.3     1  UNL1        0.0046
     23 C         136.9466  142.0119  155.9505 C.3     1  UNL1        0.0254
     24 C         135.5207  141.6985  155.6061 C.3     1  UNL1        0.0046
     25 C         136.5995  143.2290  155.1455 C.3     1  UNL1        0.0515
     26 C         137.6269  144.2991  154.9230 C.3     1  UNL1        0.2058
     27 O         139.0013  144.1520  155.5054 O.3     1  UNL1       -0.4749
     28 C         139.3484  142.9348  156.3103 C.ar    1  UNL1        0.1449
     29 C         140.7229  142.7876  156.8927 C.ar    1  UNL1        0.0909
     30 CL        141.7503  143.8576  156.6702 Cl      1  UNL1       -0.0791
     31 C         141.0700  141.5704  157.6977 C.ar    1  UNL1        0.0115
     32 C         140.0426  140.5004  157.9202 C.ar    1  UNL1       -0.0054
     33 C         138.6682  140.6475  157.3378 C.ar    1  UNL1       -0.0042
     34 C         138.3211  141.8647  156.5328 C.ar    1  UNL1        0.0119
@<TRIPOS>UNITY_ATOM_ATTR
19 1
charge -1
@<TRIPOS>BOND
     1    22    23    1
     2    23    24    1
     3    23    25    1
     4    25    26    1
     5    26    27    1
     6    27    28    1
     7    28    29   ar
     8    29    30    1
     9    29    31   ar
    10    31    32   ar
    11    32    21    1
    12    21     1    1
    13     1     2    1
    14     2     3    1
    15     3     4    1
    16     4     5    1
    17     5     6    1
    18     4     7    1
    19     7     8    1
    20     8     9    2
    21     8    10   am
    22    10    12    1
    23    12    13   ar
    24    13    14   ar
    25    14    15   ar
    26    15    18    1
    27    18    19   ar
    28    18    20   ar
    29    15    16   ar
    30    16    17   ar
    31    10    11    1
    32    32    33   ar
    33    33    34   ar
    34    34    23    1
    35    34    28   ar
    36     6     1    1
    37    17    12   ar
    38    11     4    1
