@<TRIPOS>MOLECULE
*****
 20 22 0 0 0
SMALL
GASTEIGER

@<TRIPOS>ATOM
      1 C         137.1581  137.8659  167.3474 C.3     1  UNL1        0.0320
      2 C         138.1418  138.9661  167.0791 C.3     1  UNL1        0.1155
      3 C         138.3405  139.4700  165.6804 C.3     1  UNL1        0.0327
      4 C         139.3242  140.5702  165.4122 C.3     1  UNL1        0.0406
      5 C         139.5228  141.0741  164.0134 C.3     1  UNL1        0.0672
      6 S         140.5066  142.1743  163.7452 S.3     1  UNL1       -0.0807
      7 C         141.2918  142.7704  164.8758 C.2     1  UNL1        0.1482
      8 N         142.2755  143.8705  164.6076 N.pl3   1  UNL1       -0.3380
      9 N         141.0931  142.2664  166.2745 N.2     1  UNL1       -0.2484
     10 C         140.1094  141.1663  166.5427 C.3     1  UNL1        0.1331
     11 C         139.9107  140.6623  167.9415 C.3     1  UNL1        0.1685
     12 O         138.9269  139.5622  168.2097 O.3     1  UNL1       -0.3539
     13 H         142.4059  144.2013  163.6895 H       1  UNL1        0.1442
     14 H         142.7908  144.2618  165.3496 H       1  UNL1        0.1442
     15 C         140.8945  141.7625  167.6733 C.ar    1  UNL1        0.0002
     16 C         140.2708  142.8072  168.5506 C.ar    1  UNL1       -0.0024
     17 C         141.0560  143.4034  169.6811 C.ar    1  UNL1       -0.0003
     18 C         142.4647  142.9548  169.9344 C.ar    1  UNL1       -0.0000
     19 C         143.0884  141.9101  169.0571 C.ar    1  UNL1       -0.0003
     20 C         142.3033  141.3139  167.9265 C.ar    1  UNL1       -0.0024
@<TRIPOS>BOND
     1     2     1    1
     2     2     3    1
     3     4     3    1
     4     4     5    1
     5     5     6    1
     6     6     7    1
     7     7     8    1
     8     7     9    2
     9     9    10    1
    10    10    15    1
    11    15    16   ar
    12    16    17   ar
    13    17    18   ar
    14    18    19   ar
    15    19    20   ar
    16    10    11    1
    17    11    12    1
    18    12     2    1
    19    10     4    1
    20    20    15   ar
    21     8    13    1
    22     8    14    1
@<TRIPOS>MOLECULE
*****
 20 22 0 0 0
SMALL
GASTEIGER

@<TRIPOS>ATOM
      1 C         137.8164  138.7141  166.6826 C.3     1  UNL1        0.0320
      2 C         139.0913  139.4387  166.9981 C.3     1  UNL1        0.1155
      3 C         139.3478  139.9337  168.3906 C.3     1  UNL1        0.0327
      4 C         140.6227  140.6583  168.7061 C.3     1  UNL1        0.0406
      5 C         140.8792  141.1533  170.0987 C.3     1  UNL1        0.0672
      6 S         142.1541  141.8779  170.4141 S.3     1  UNL1       -0.0807
      7 C         143.1726  142.1075  169.3370 C.2     1  UNL1        0.1482
      8 N         144.4475  142.8322  169.6525 N.pl3   1  UNL1       -0.3380
      9 N         142.9160  141.6126  167.9445 N.2     1  UNL1       -0.2484
     10 C         141.6411  140.8880  167.6290 C.3     1  UNL1        0.1331
     11 C         141.3846  140.3930  166.2365 C.3     1  UNL1        0.1685
     12 O         140.1097  139.6684  165.9210 O.3     1  UNL1       -0.3539
     13 H         144.6158  143.1570  170.5664 H       1  UNL1        0.1442
     14 H         145.1159  142.9829  168.9455 H       1  UNL1        0.1442
     15 C         142.6595  141.1176  166.5520 C.ar    1  UNL1        0.0002
     16 C         143.2652  139.9499  165.8311 C.ar    1  UNL1       -0.0024
     17 C         144.2836  140.1795  164.7540 C.ar    1  UNL1       -0.0003
     18 C         144.6963  141.5769  164.3978 C.ar    1  UNL1       -0.0000
     19 C         144.0907  142.7446  165.1186 C.ar    1  UNL1       -0.0003
     20 C         143.0723  142.5150  166.1957 C.ar    1  UNL1       -0.0024
@<TRIPOS>BOND
     1     2     1    1
     2     2     3    1
     3     4     3    1
     4     4     5    1
     5     5     6    1
     6     6     7    1
     7     7     8    1
     8     7     9    2
     9     9    10    1
    10    10    15    1
    11    15    16   ar
    12    16    17   ar
    13    17    18   ar
    14    18    19   ar
    15    19    20   ar
    16    10    11    1
    17    11    12    1
    18    12     2    1
    19    10     4    1
    20    20    15   ar
    21     8    13    1
    22     8    14    1
@<TRIPOS>MOLECULE
*****
 20 22 0 0 0
SMALL
GASTEIGER

@<TRIPOS>ATOM
      1 C         144.0085  143.4970  163.8565 C.3     1  UNL1        0.0320
      2 C         143.2864  142.6458  164.8585 C.3     1  UNL1        0.1155
      3 C         143.6082  142.7696  166.3183 C.3     1  UNL1        0.0327
      4 C         142.8861  141.9183  167.3203 C.3     1  UNL1        0.0406
      5 C         143.2078  142.0422  168.7802 C.3     1  UNL1        0.0672
      6 S         142.4858  141.1910  169.7822 S.3     1  UNL1       -0.0807
      7 C         141.4419  140.2158  169.3243 C.2     1  UNL1        0.1482
      8 N         140.7198  139.3646  170.3263 N.pl3   1  UNL1       -0.3380
      9 N         141.1202  140.0920  167.8645 N.2     1  UNL1       -0.2484
     10 C         141.8423  140.9433  166.8625 C.3     1  UNL1        0.1331
     11 C         141.5206  140.8194  165.4027 C.3     1  UNL1        0.1685
     12 O         142.2426  141.6707  164.4007 O.3     1  UNL1       -0.3539
     13 H         140.9310  139.4459  171.2844 H       1  UNL1        0.1442
     14 H         140.0347  138.7246  170.0258 H       1  UNL1        0.1442
     15 C         140.7985  139.9682  166.4046 C.ar    1  UNL1        0.0002
     16 C         141.1920  138.7839  165.5723 C.ar    1  UNL1       -0.0024
     17 C         140.1482  137.8089  165.1144 C.ar    1  UNL1       -0.0003
     18 C         138.7109  138.0179  165.4889 C.ar    1  UNL1       -0.0000
     19 C         138.3173  139.2021  166.3213 C.ar    1  UNL1       -0.0003
     20 C         139.3611  140.1773  166.7791 C.ar    1  UNL1       -0.0024
@<TRIPOS>BOND
     1     2     1    1
     2     2     3    1
     3     4     3    1
     4     4     5    1
     5     5     6    1
     6     6     7    1
     7     7     8    1
     8     7     9    2
     9     9    10    1
    10    10    15    1
    11    15    16   ar
    12    16    17   ar
    13    17    18   ar
    14    18    19   ar
    15    19    20   ar
    16    10    11    1
    17    11    12    1
    18    12     2    1
    19    10     4    1
    20    20    15   ar
    21     8    13    1
    22     8    14    1
@<TRIPOS>MOLECULE
*****
 20 22 0 0 0
SMALL
GASTEIGER

@<TRIPOS>ATOM
      1 C         138.3104  144.7562  165.1494 C.3     1  UNL1        0.0320
      2 C         139.6288  144.0446  165.0756 C.3     1  UNL1        0.1155
      3 C         140.7037  144.5504  164.1599 C.3     1  UNL1        0.0327
      4 C         142.0221  143.8388  164.0860 C.3     1  UNL1        0.0406
      5 C         143.0972  144.3447  163.1702 C.3     1  UNL1        0.0672
      6 S         144.4156  143.6331  163.0963 S.3     1  UNL1       -0.0807
      7 C         144.6590  142.4157  163.9382 C.2     1  UNL1        0.1482
      8 N         145.9774  141.7041  163.8644 N.pl3   1  UNL1       -0.3380
      9 N         143.5840  141.9099  164.8539 N.2     1  UNL1       -0.2484
     10 C         142.2656  142.6215  164.9278 C.3     1  UNL1        0.1331
     11 C         141.1906  142.1157  165.8435 C.3     1  UNL1        0.1685
     12 O         139.8722  142.8273  165.9174 O.3     1  UNL1       -0.3539
     13 H         146.6829  142.0360  163.2633 H       1  UNL1        0.1442
     14 H         146.1371  140.9051  164.4169 H       1  UNL1        0.1442
     15 C         142.5090  141.4041  165.7697 C.ar    1  UNL1        0.0002
     16 C         142.6510  140.0594  165.1204 C.ar    1  UNL1       -0.0024
     17 C         142.8945  138.8420  165.9622 C.ar    1  UNL1       -0.0003
     18 C         142.9959  138.9693  167.4533 C.ar    1  UNL1       -0.0000
     19 C         142.8539  140.3140  168.1026 C.ar    1  UNL1       -0.0003
     20 C         142.6104  141.5314  167.2608 C.ar    1  UNL1       -0.0024
@<TRIPOS>BOND
     1     2     1    1
     2     2     3    1
     3     4     3    1
     4     4     5    1
     5     5     6    1
     6     6     7    1
     7     7     8    1
     8     7     9    2
     9     9    10    1
    10    10    15    1
    11    15    16   ar
    12    16    17   ar
    13    17    18   ar
    14    18    19   ar
    15    19    20   ar
    16    10    11    1
    17    11    12    1
    18    12     2    1
    19    10     4    1
    20    20    15   ar
    21     8    13    1
    22     8    14    1
@<TRIPOS>MOLECULE
*****
 20 22 0 0 0
SMALL
GASTEIGER

@<TRIPOS>ATOM
      1 C         142.8064  141.1831  168.7514 C.3     1  UNL1        0.0320
      2 C         142.4590  141.8398  167.4483 C.3     1  UNL1        0.1155
      3 C         143.5458  142.3853  166.5701 C.3     1  UNL1        0.0327
      4 C         143.1984  143.0421  165.2671 C.3     1  UNL1        0.0406
      5 C         144.2854  143.5876  164.3889 C.3     1  UNL1        0.0672
      6 S         143.9380  144.2444  163.0858 S.3     1  UNL1       -0.0807
      7 C         142.5037  144.3556  162.6609 C.2     1  UNL1        0.1482
      8 N         142.1563  145.0124  161.3579 N.pl3   1  UNL1       -0.3380
      9 N         141.4168  143.8101  163.5391 N.2     1  UNL1       -0.2484
     10 C         141.7642  143.1533  164.8422 C.3     1  UNL1        0.1331
     11 C         140.6774  142.6078  165.7203 C.3     1  UNL1        0.1685
     12 O         141.0248  141.9511  167.0234 O.3     1  UNL1       -0.3539
     13 H         142.8696  145.3704  160.7815 H       1  UNL1        0.1442
     14 H         141.2149  145.0854  161.0790 H       1  UNL1        0.1442
     15 C         140.3300  143.2646  164.4172 C.ar    1  UNL1        0.0002
     16 C         139.4364  144.2876  165.0537 C.ar    1  UNL1       -0.0024
     17 C         138.0022  144.3988  164.6288 C.ar    1  UNL1       -0.0003
     18 C         137.4615  143.4871  163.5674 C.ar    1  UNL1       -0.0000
     19 C         138.3550  142.4642  162.9310 C.ar    1  UNL1       -0.0003
     20 C         139.7893  142.3529  163.3559 C.ar    1  UNL1       -0.0024
@<TRIPOS>BOND
     1     2     1    1
     2     2     3    1
     3     4     3    1
     4     4     5    1
     5     5     6    1
     6     6     7    1
     7     7     8    1
     8     7     9    2
     9     9    10    1
    10    10    15    1
    11    15    16   ar
    12    16    17   ar
    13    17    18   ar
    14    18    19   ar
    15    19    20   ar
    16    10    11    1
    17    11    12    1
    18    12     2    1
    19    10     4    1
    20    20    15   ar
    21     8    13    1
    22     8    14    1
@<TRIPOS>MOLECULE
*****
 20 22 0 0 0
SMALL
GASTEIGER

@<TRIPOS>ATOM
      1 C         141.4387  141.4011  171.0155 C.3     1  UNL1        0.0320
      2 C         140.9470  141.3961  169.5984 C.3     1  UNL1        0.1155
      3 C         140.0892  140.2684  169.1061 C.3     1  UNL1        0.0327
      4 C         139.5975  140.2634  167.6890 C.3     1  UNL1        0.0406
      5 C         138.7397  139.1355  167.1968 C.3     1  UNL1        0.0672
      6 S         138.2480  139.1305  165.7797 S.3     1  UNL1       -0.0807
      7 C         138.6140  140.2534  164.8548 C.2     1  UNL1        0.1482
      8 N         138.1223  140.2484  163.4377 N.pl3   1  UNL1       -0.3380
      9 N         139.4718  141.3812  165.3471 N.2     1  UNL1       -0.2484
     10 C         139.9635  141.3862  166.7642 C.3     1  UNL1        0.1331
     11 C         140.8212  142.5139  167.2564 C.3     1  UNL1        0.1685
     12 O         141.3130  142.5189  168.6735 O.3     1  UNL1       -0.3539
     13 H         137.5593  139.5082  163.1146 H       1  UNL1        0.1442
     14 H         138.3625  140.9853  162.8307 H       1  UNL1        0.1442
     15 C         140.3295  142.5089  165.8393 C.ar    1  UNL1        0.0002
     16 C         139.3423  143.6035  165.5611 C.ar    1  UNL1       -0.0024
     17 C         139.7083  144.7263  164.6362 C.ar    1  UNL1       -0.0003
     18 C         141.0615  144.7546  163.9896 C.ar    1  UNL1       -0.0000
     19 C         142.0487  143.6600  164.2678 C.ar    1  UNL1       -0.0003
     20 C         141.6827  142.5372  165.1927 C.ar    1  UNL1       -0.0024
@<TRIPOS>BOND
     1     2     1    1
     2     2     3    1
     3     4     3    1
     4     4     5    1
     5     5     6    1
     6     6     7    1
     7     7     8    1
     8     7     9    2
     9     9    10    1
    10    10    15    1
    11    15    16   ar
    12    16    17   ar
    13    17    18   ar
    14    18    19   ar
    15    19    20   ar
    16    10    11    1
    17    11    12    1
    18    12     2    1
    19    10     4    1
    20    20    15   ar
    21     8    13    1
    22     8    14    1
@<TRIPOS>MOLECULE
*****
 20 22 0 0 0
SMALL
GASTEIGER

@<TRIPOS>ATOM
      1 C         139.4219  140.6118  169.6579 C.3     1  UNL1        0.0320
      2 C         139.9117  140.2241  168.2942 C.3     1  UNL1        0.1155
      3 C         139.0181  139.4550  167.3668 C.3     1  UNL1        0.0327
      4 C         139.5080  139.0674  166.0031 C.3     1  UNL1        0.0406
      5 C         138.6143  138.2983  165.0758 C.3     1  UNL1        0.0672
      6 S         139.1041  137.9106  163.7120 S.3     1  UNL1       -0.0807
      7 C         140.4877  138.2920  163.2757 C.2     1  UNL1        0.1482
      8 N         140.9776  137.9043  161.9120 N.pl3   1  UNL1       -0.3380
      9 N         141.3813  139.0610  164.2030 N.2     1  UNL1       -0.2484
     10 C         140.8915  139.4487  165.5667 C.3     1  UNL1        0.1331
     11 C         141.7851  140.2177  166.4941 C.3     1  UNL1        0.1685
     12 O         141.2952  140.6054  167.8578 O.3     1  UNL1       -0.3539
     13 H         140.3910  137.3995  161.3033 H       1  UNL1        0.1442
     14 H         141.8856  138.1546  161.6255 H       1  UNL1        0.1442
     15 C         142.2750  139.8300  165.1303 C.ar    1  UNL1        0.0002
     16 C         142.5555  141.2275  164.6628 C.ar    1  UNL1       -0.0024
     17 C         143.9390  141.6088  164.2265 C.ar    1  UNL1       -0.0003
     18 C         145.0420  140.5928  164.2575 C.ar    1  UNL1       -0.0000
     19 C         144.7615  139.1954  164.7250 C.ar    1  UNL1       -0.0003
     20 C         143.3780  138.8140  165.1614 C.ar    1  UNL1       -0.0024
@<TRIPOS>BOND
     1     2     1    1
     2     2     3    1
     3     4     3    1
     4     4     5    1
     5     5     6    1
     6     6     7    1
     7     7     8    1
     8     7     9    2
     9     9    10    1
    10    10    15    1
    11    15    16   ar
    12    16    17   ar
    13    17    18   ar
    14    18    19   ar
    15    19    20   ar
    16    10    11    1
    17    11    12    1
    18    12     2    1
    19    10     4    1
    20    20    15   ar
    21     8    13    1
    22     8    14    1
@<TRIPOS>MOLECULE
*****
 20 22 0 0 0
SMALL
GASTEIGER

@<TRIPOS>ATOM
      1 C         142.9784  139.0533  166.9857 C.3     1  UNL1        0.0320
      2 C         142.6011  140.1592  166.0450 C.3     1  UNL1        0.1155
      3 C         143.6138  140.7017  165.0807 C.3     1  UNL1        0.0327
      4 C         143.2365  141.8075  164.1401 C.3     1  UNL1        0.0406
      5 C         144.2493  142.3501  163.1757 C.3     1  UNL1        0.0672
      6 S         143.8720  143.4559  162.2350 S.3     1  UNL1       -0.0807
      7 C         142.4819  144.0192  162.2588 C.2     1  UNL1        0.1482
      8 N         142.1046  145.1250  161.3181 N.pl3   1  UNL1       -0.3380
      9 N         141.4692  143.4766  163.2231 N.2     1  UNL1       -0.2484
     10 C         141.8465  142.3708  164.1638 C.3     1  UNL1        0.1331
     11 C         140.8338  141.8282  165.1281 C.3     1  UNL1        0.1685
     12 O         141.2111  140.7224  166.0687 O.3     1  UNL1       -0.3539
     13 H         142.7693  145.4811  160.6852 H       1  UNL1        0.1442
     14 H         141.1923  145.4947  161.3337 H       1  UNL1        0.1442
     15 C         140.4565  142.9340  164.1875 C.ar    1  UNL1        0.0002
     16 C         140.1155  144.0502  165.1298 C.ar    1  UNL1       -0.0024
     17 C         138.7255  144.6134  165.1536 C.ar    1  UNL1       -0.0003
     18 C         137.6765  144.0606  164.2349 C.ar    1  UNL1       -0.0000
     19 C         138.0174  142.9445  163.2925 C.ar    1  UNL1       -0.0003
     20 C         139.4075  142.3812  163.2688 C.ar    1  UNL1       -0.0024
@<TRIPOS>BOND
     1     2     1    1
     2     2     3    1
     3     4     3    1
     4     4     5    1
     5     5     6    1
     6     6     7    1
     7     7     8    1
     8     7     9    2
     9     9    10    1
    10    10    15    1
    11    15    16   ar
    12    16    17   ar
    13    17    18   ar
    14    18    19   ar
    15    19    20   ar
    16    10    11    1
    17    11    12    1
    18    12     2    1
    19    10     4    1
    20    20    15   ar
    21     8    13    1
    22     8    14    1
@<TRIPOS>MOLECULE
*****
 20 22 0 0 0
SMALL
GASTEIGER

@<TRIPOS>ATOM
      1 C         138.4480  138.5224  165.9028 C.3     1  UNL1        0.0320
      2 C         139.1564  139.7559  165.4269 C.3     1  UNL1        0.1155
      3 C         138.3684  140.9764  165.0535 C.3     1  UNL1        0.0327
      4 C         139.0769  142.2099  164.5776 C.3     1  UNL1        0.0406
      5 C         138.2888  143.4305  164.2042 C.3     1  UNL1        0.0672
      6 S         138.9972  144.6640  163.7283 S.3     1  UNL1       -0.0807
      7 C         140.4937  144.6770  163.6258 C.2     1  UNL1        0.1482
      8 N         141.2021  145.9106  163.1499 N.pl3   1  UNL1       -0.3380
      9 N         141.2817  143.4566  163.9992 N.2     1  UNL1       -0.2484
     10 C         140.5733  142.2230  164.4751 C.3     1  UNL1        0.1331
     11 C         141.3612  141.0025  164.8485 C.3     1  UNL1        0.1685
     12 O         140.6528  139.7690  165.3244 O.3     1  UNL1       -0.3539
     13 H         140.6849  146.7117  162.9048 H       1  UNL1        0.1442
     14 H         142.1843  145.9192  163.0826 H       1  UNL1        0.1442
     15 C         142.0697  142.2361  164.3726 C.ar    1  UNL1        0.0002
     16 C         142.7506  141.5161  163.2465 C.ar    1  UNL1       -0.0024
     17 C         144.2470  141.5292  163.1439 C.ar    1  UNL1       -0.0003
     18 C         145.0626  142.2622  164.1675 C.ar    1  UNL1       -0.0000
     19 C         144.3817  142.9821  165.2936 C.ar    1  UNL1       -0.0003
     20 C         142.8852  142.9691  165.3961 C.ar    1  UNL1       -0.0024
@<TRIPOS>BOND
     1     2     1    1
     2     2     3    1
     3     4     3    1
     4     4     5    1
     5     5     6    1
     6     6     7    1
     7     7     8    1
     8     7     9    2
     9     9    10    1
    10    10    15    1
    11    15    16   ar
    12    16    17   ar
    13    17    18   ar
    14    18    19   ar
    15    19    20   ar
    16    10    11    1
    17    11    12    1
    18    12     2    1
    19    10     4    1
    20    20    15   ar
    21     8    13    1
    22     8    14    1
