@<TRIPOS>MOLECULE
*****
 30 34 0 0 0
SMALL
GASTEIGER

@<TRIPOS>ATOM
      1 C         138.5108  139.7554  160.2164 C.ar    1  UNL1        0.0483
      2 C         139.7572  139.0669  160.6881 C.ar    1  UNL1        0.0143
      3 C         140.8167  138.6749  159.7013 C.ar    1  UNL1       -0.0016
      4 C         140.6299  138.9715  158.2428 C.ar    1  UNL1       -0.0061
      5 C         139.3835  139.6600  157.7711 C.ar    1  UNL1       -0.0016
      6 C         138.3240  140.0519  158.7579 C.ar    1  UNL1        0.0143
      7 N         137.4512  140.1473  161.2031 N.pl3   1  UNL1       -0.3125
      8 H         136.5839  139.6815  161.2051 H       1  UNL1        0.1522
      9 BR        138.4987  144.5543  165.1378 Br      1  UNL1       -0.0490
     10 C         138.2368  143.4525  164.1541 C.ar    1  UNL1        0.0346
     11 C         138.1874  143.7543  162.6856 C.ar    1  UNL1        0.0080
     12 C         137.9256  142.6525  161.7020 C.ar    1  UNL1        0.0151
     13 C         137.7131  141.2491  162.1868 C.ar    1  UNL1        0.0483
     14 C         137.7625  140.9473  163.6553 C.ar    1  UNL1        0.0151
     15 C         138.0244  142.0490  164.6390 C.ar    1  UNL1        0.0080
     16 C         141.6894  138.5795  157.2560 C.3     1  UNL1        0.0991
     17 N         141.8221  137.1483  156.8268 N.3     1  UNL1       -0.2688
     18 C         140.9096  136.5936  155.7735 C.3     1  UNL1        0.0751
     19 C         141.0422  135.1625  155.3443 C.3     1  UNL1        0.0488
     20 C         142.0874  134.2861  155.9685 C.3     1  UNL1        0.1142
     21 C         142.9999  134.8408  157.0218 C.3     1  UNL1        0.0488
     22 C         142.8672  136.2719  157.4510 C.3     1  UNL1        0.0751
     23 O         141.1749  133.7313  154.9151 O.3     1  UNL1       -0.3540
     24 C         141.3075  132.3001  154.4859 C.3     1  UNL1        0.1476
     25 C         142.3527  131.4237  155.1101 C.3     1  UNL1        0.0647
     26 C         143.2652  131.9785  156.1634 C.ar    1  UNL1        0.0080
     27 S         144.3811  131.3596  156.9519 S.2     1  UNL1       -0.0909
     28 C         144.9381  132.4083  157.8685 C.ar    1  UNL1        0.0349
     29 C         144.1665  133.6753  157.6464 C.ar    1  UNL1        0.0051
     30 C         143.1325  133.4097  156.5926 C.ar    1  UNL1        0.0047
@<TRIPOS>BOND
     1     9    10    1
     2    10    11   ar
     3    11    12   ar
     4    12    13   ar
     5    13     7    1
     6     7     1    1
     7     1     2   ar
     8     2     3   ar
     9     3     4   ar
    10     4    16    1
    11    16    17    1
    12    17    18    1
    13    18    19    1
    14    19    20    1
    15    20    21    1
    16    21    22    1
    17    20    23    1
    18    23    24    1
    19    24    25    1
    20    25    26    1
    21    26    27   ar
    22    27    28   ar
    23    28    29   ar
    24    29    30   ar
    25     4     5   ar
    26     5     6   ar
    27    13    14   ar
    28    14    15   ar
    29    15    10   ar
    30     6     1   ar
    31    22    17    1
    32    30    26   ar
    33    30    20    1
    34     7     8    1
@<TRIPOS>MOLECULE
*****
 30 34 0 0 0
SMALL
GASTEIGER

@<TRIPOS>ATOM
      1 C         140.2073  139.0391  159.2418 C.ar    1  UNL1        0.0483
      2 C         141.6313  138.8546  159.6754 C.ar    1  UNL1        0.0143
      3 C         142.5769  138.0582  158.8259 C.ar    1  UNL1       -0.0016
      4 C         142.0984  137.4463  157.5427 C.ar    1  UNL1       -0.0061
      5 C         140.6744  137.6308  157.1090 C.ar    1  UNL1       -0.0016
      6 C         139.7288  138.4272  157.9586 C.ar    1  UNL1        0.0143
      7 N         139.2617  139.8354  160.0913 N.pl3   1  UNL1       -0.3125
      8 H         138.7673  140.5920  159.7009 H       1  UNL1        0.1522
      9 BR        138.4928  138.4102  165.8686 Br      1  UNL1       -0.0490
     10 C         138.6850  138.7665  164.4243 C.ar    1  UNL1        0.0346
     11 C         138.6939  140.2056  164.0016 C.ar    1  UNL1        0.0080
     12 C         138.8862  140.5619  162.5572 C.ar    1  UNL1        0.0151
     13 C         139.0695  139.4791  161.5356 C.ar    1  UNL1        0.0483
     14 C         139.0606  138.0399  161.9583 C.ar    1  UNL1        0.0151
     15 C         138.8683  137.6835  163.4026 C.ar    1  UNL1        0.0080
     16 C         143.0439  136.6500  156.6931 C.3     1  UNL1        0.0991
     17 N         142.8109  135.1828  156.4847 N.3     1  UNL1       -0.2688
     18 C         141.7355  134.7200  155.5470 C.3     1  UNL1        0.0751
     19 C         141.5026  133.2530  155.3386 C.3     1  UNL1        0.0488
     20 C         142.3449  132.2488  156.0680 C.3     1  UNL1        0.1142
     21 C         143.4203  132.7116  157.0057 C.3     1  UNL1        0.0488
     22 C         143.6533  134.1786  157.2141 C.3     1  UNL1        0.0751
     23 O         141.2695  131.7859  155.1302 O.3     1  UNL1       -0.3540
     24 C         141.0365  130.3188  154.9219 C.3     1  UNL1        0.1476
     25 C         141.8789  129.3146  155.6512 C.3     1  UNL1        0.0647
     26 C         142.9542  129.7774  156.5890 C.ar    1  UNL1        0.0080
     27 S         143.9352  129.0269  157.4400 S.2     1  UNL1       -0.0909
     28 C         144.7745  130.0300  158.1743 C.ar    1  UNL1        0.0349
     29 C         144.3123  131.4006  157.7772 C.ar    1  UNL1        0.0051
     30 C         143.1873  131.2445  156.7974 C.ar    1  UNL1        0.0047
@<TRIPOS>BOND
     1     9    10    1
     2    10    11   ar
     3    11    12   ar
     4    12    13   ar
     5    13     7    1
     6     7     1    1
     7     1     2   ar
     8     2     3   ar
     9     3     4   ar
    10     4    16    1
    11    16    17    1
    12    17    18    1
    13    18    19    1
    14    19    20    1
    15    20    21    1
    16    21    22    1
    17    20    23    1
    18    23    24    1
    19    24    25    1
    20    25    26    1
    21    26    27   ar
    22    27    28   ar
    23    28    29   ar
    24    29    30   ar
    25     4     5   ar
    26     5     6   ar
    27    13    14   ar
    28    14    15   ar
    29    15    10   ar
    30     6     1   ar
    31    22    17    1
    32    30    26   ar
    33    30    20    1
    34     7     8    1
@<TRIPOS>MOLECULE
*****
 30 34 0 0 0
SMALL
GASTEIGER

@<TRIPOS>ATOM
      1 C         143.9383  138.9817  162.1287 C.ar    1  UNL1        0.0483
      2 C         144.3539  139.7435  160.9051 C.ar    1  UNL1        0.0143
      3 C         143.5830  139.5891  159.6277 C.ar    1  UNL1       -0.0016
      4 C         142.3966  138.6729  159.5738 C.ar    1  UNL1       -0.0061
      5 C         141.9810  137.9111  160.7973 C.ar    1  UNL1       -0.0016
      6 C         142.7519  138.0655  162.0748 C.ar    1  UNL1        0.0143
      7 N         144.7092  139.1362  163.4061 N.pl3   1  UNL1       -0.3125
      8 H         145.6780  138.9617  163.4206 H       1  UNL1        0.1522
      9 BR        141.8884  140.8170  168.4278 Br      1  UNL1       -0.0490
     10 C         142.5936  140.3968  167.1724 C.ar    1  UNL1        0.0346
     11 C         142.9086  141.4115  166.1136 C.ar    1  UNL1        0.0080
     12 C         143.6138  140.9913  164.8582 C.ar    1  UNL1        0.0151
     13 C         144.0040  139.5564  164.6615 C.ar    1  UNL1        0.0483
     14 C         143.6890  138.5416  165.7203 C.ar    1  UNL1        0.0151
     15 C         142.9838  138.9618  166.9758 C.ar    1  UNL1        0.0080
     16 C         141.6257  138.5185  158.2963 C.3     1  UNL1        0.0991
     17 N         141.8054  137.2891  157.4558 N.3     1  UNL1       -0.2688
     18 C         140.9845  137.1028  156.2143 C.3     1  UNL1        0.0751
     19 C         141.1642  135.8735  155.3738 C.3     1  UNL1        0.0488
     20 C         142.1649  134.8304  155.7749 C.3     1  UNL1        0.1142
     21 C         142.9857  135.0167  157.0164 C.3     1  UNL1        0.0488
     22 C         142.8060  136.2460  157.8568 C.3     1  UNL1        0.0751
     23 O         141.3439  134.6441  154.5333 O.3     1  UNL1       -0.3540
     24 C         141.5237  133.4148  153.6928 C.3     1  UNL1        0.1476
     25 C         142.5243  132.3717  154.0939 C.3     1  UNL1        0.0647
     26 C         143.3452  132.5580  155.3354 C.ar    1  UNL1        0.0080
     27 S         144.4009  131.7077  155.9776 S.2     1  UNL1       -0.0909
     28 C         144.8736  132.4116  157.2151 C.ar    1  UNL1        0.0349
     29 C         144.1101  133.6968  157.3376 C.ar    1  UNL1        0.0051
     30 C         143.1655  133.7874  156.1759 C.ar    1  UNL1        0.0047
@<TRIPOS>BOND
     1     9    10    1
     2    10    11   ar
     3    11    12   ar
     4    12    13   ar
     5    13     7    1
     6     7     1    1
     7     1     2   ar
     8     2     3   ar
     9     3     4   ar
    10     4    16    1
    11    16    17    1
    12    17    18    1
    13    18    19    1
    14    19    20    1
    15    20    21    1
    16    21    22    1
    17    20    23    1
    18    23    24    1
    19    24    25    1
    20    25    26    1
    21    26    27   ar
    22    27    28   ar
    23    28    29   ar
    24    29    30   ar
    25     4     5   ar
    26     5     6   ar
    27    13    14   ar
    28    14    15   ar
    29    15    10   ar
    30     6     1   ar
    31    22    17    1
    32    30    26   ar
    33    30    20    1
    34     7     8    1
@<TRIPOS>MOLECULE
*****
 30 34 0 0 0
SMALL
GASTEIGER

@<TRIPOS>ATOM
      1 C         138.8203  139.2626  159.9204 C.ar    1  UNL1        0.0483
      2 C         139.4179  138.1070  160.6670 C.ar    1  UNL1        0.0143
      3 C         139.2430  138.0032  162.1531 C.ar    1  UNL1       -0.0016
      4 C         138.4705  139.0550  162.8927 C.ar    1  UNL1       -0.0061
      5 C         137.8729  140.2106  162.1461 C.ar    1  UNL1       -0.0016
      6 C         138.0478  140.3144  160.6599 C.ar    1  UNL1        0.0143
      7 N         138.9952  139.3665  158.4343 N.pl3   1  UNL1       -0.3125
      8 H         138.3511  139.8827  157.8978 H       1  UNL1        0.1522
      9 BR        143.6198  136.6353  155.7597 Br      1  UNL1       -0.0490
     10 C         142.4637  137.3181  156.4283 C.ar    1  UNL1        0.0346
     11 C         142.6996  138.5270  157.2844 C.ar    1  UNL1        0.0080
     12 C         141.5435  139.2097  157.9531 C.ar    1  UNL1        0.0151
     13 C         140.1513  138.6837  157.7657 C.ar    1  UNL1        0.0483
     14 C         139.9153  137.4747  156.9095 C.ar    1  UNL1        0.0151
     15 C         141.0715  136.7919  156.2409 C.ar    1  UNL1        0.0080
     16 C         138.2956  138.9512  164.3789 C.3     1  UNL1        0.0991
     17 N         139.2722  139.6235  165.2978 N.3     1  UNL1       -0.2688
     18 C         140.4255  140.3970  164.7306 C.3     1  UNL1        0.0751
     19 C         141.4020  141.0692  165.6495 C.3     1  UNL1        0.0488
     20 C         141.2252  140.9680  167.1356 C.3     1  UNL1        0.1142
     21 C         140.0720  140.1946  167.7028 C.3     1  UNL1        0.0488
     22 C         139.0955  139.5223  166.7839 C.3     1  UNL1        0.0751
     23 O         142.3786  141.7415  166.5684 O.3     1  UNL1       -0.3540
     24 C         143.3551  142.4138  167.4873 C.3     1  UNL1        0.1476
     25 C         143.1784  142.3126  168.9734 C.3     1  UNL1        0.0647
     26 C         142.0251  141.5392  169.5406 C.ar    1  UNL1        0.0080
     27 S         141.5966  141.2666  170.9520 S.2     1  UNL1       -0.0909
     28 C         140.3552  140.4259  170.9054 C.ar    1  UNL1        0.0349
     29 C         140.0165  140.1789  169.4652 C.ar    1  UNL1        0.0051
     30 C         141.0485  140.8669  168.6217 C.ar    1  UNL1        0.0047
@<TRIPOS>BOND
     1     9    10    1
     2    10    11   ar
     3    11    12   ar
     4    12    13   ar
     5    13     7    1
     6     7     1    1
     7     1     2   ar
     8     2     3   ar
     9     3     4   ar
    10     4    16    1
    11    16    17    1
    12    17    18    1
    13    18    19    1
    14    19    20    1
    15    20    21    1
    16    21    22    1
    17    20    23    1
    18    23    24    1
    19    24    25    1
    20    25    26    1
    21    26    27   ar
    22    27    28   ar
    23    28    29   ar
    24    29    30   ar
    25     4     5   ar
    26     5     6   ar
    27    13    14   ar
    28    14    15   ar
    29    15    10   ar
    30     6     1   ar
    31    22    17    1
    32    30    26   ar
    33    30    20    1
    34     7     8    1
@<TRIPOS>MOLECULE
*****
 30 34 0 0 0
SMALL
GASTEIGER

@<TRIPOS>ATOM
      1 C         138.5917  139.0453  165.7870 C.ar    1  UNL1        0.0483
      2 C         138.9739  137.7520  165.1303 C.ar    1  UNL1        0.0143
      3 C         138.9016  137.6185  163.6380 C.ar    1  UNL1       -0.0016
      4 C         138.4470  138.7783  162.8024 C.ar    1  UNL1       -0.0061
      5 C         138.0647  140.0716  163.4591 C.ar    1  UNL1       -0.0016
      6 C         138.1370  140.2051  164.9514 C.ar    1  UNL1        0.0143
      7 N         138.6640  139.1788  167.2792 N.pl3   1  UNL1       -0.3125
      8 H         137.9698  138.7690  167.8444 H       1  UNL1        0.1522
      9 BR        143.1841  142.2107  169.8044 Br      1  UNL1       -0.0490
     10 C         142.0541  141.4527  169.1731 C.ar    1  UNL1        0.0346
     11 C         142.2589  140.7564  167.8605 C.ar    1  UNL1        0.0080
     12 C         141.1289  139.9984  167.2292 C.ar    1  UNL1        0.0151
     13 C         139.7940  139.9368  167.9105 C.ar    1  UNL1        0.0483
     14 C         139.5891  140.6332  169.2233 C.ar    1  UNL1        0.0151
     15 C         140.7191  141.3911  169.8545 C.ar    1  UNL1        0.0080
     16 C         138.3746  138.6448  161.3101 C.3     1  UNL1        0.0991
     17 N         138.8591  139.7610  160.4328 N.3     1  UNL1       -0.2688
     18 C         140.2394  140.3171  160.6203 C.3     1  UNL1        0.0751
     19 C         140.7238  141.4333  159.7431 C.3     1  UNL1        0.0488
     20 C         139.8278  141.9932  158.6784 C.3     1  UNL1        0.1142
     21 C         138.4474  141.4370  158.4909 C.3     1  UNL1        0.0488
     22 C         137.9631  140.3209  159.3681 C.3     1  UNL1        0.0751
     23 O         141.2083  142.5494  158.8658 O.3     1  UNL1       -0.3540
     24 C         141.6926  143.6656  157.9886 C.3     1  UNL1        0.1476
     25 C         140.7966  144.2255  156.9239 C.3     1  UNL1        0.0647
     26 C         139.4163  143.6693  156.7364 C.ar    1  UNL1        0.0080
     27 S         138.3160  144.0163  155.7777 S.2     1  UNL1       -0.0909
     28 C         137.1516  143.1146  156.0625 C.ar    1  UNL1        0.0349
     29 C         137.5322  142.2103  157.1971 C.ar    1  UNL1        0.0051
     30 C         138.9318  142.5532  157.6136 C.ar    1  UNL1        0.0047
@<TRIPOS>BOND
     1     9    10    1
     2    10    11   ar
     3    11    12   ar
     4    12    13   ar
     5    13     7    1
     6     7     1    1
     7     1     2   ar
     8     2     3   ar
     9     3     4   ar
    10     4    16    1
    11    16    17    1
    12    17    18    1
    13    18    19    1
    14    19    20    1
    15    20    21    1
    16    21    22    1
    17    20    23    1
    18    23    24    1
    19    24    25    1
    20    25    26    1
    21    26    27   ar
    22    27    28   ar
    23    28    29   ar
    24    29    30   ar
    25     4     5   ar
    26     5     6   ar
    27    13    14   ar
    28    14    15   ar
    29    15    10   ar
    30     6     1   ar
    31    22    17    1
    32    30    26   ar
    33    30    20    1
    34     7     8    1
@<TRIPOS>MOLECULE
*****
 30 34 0 0 0
SMALL
GASTEIGER

@<TRIPOS>ATOM
      1 C         138.4781  138.9923  166.0893 C.ar    1  UNL1        0.0483
      2 C         138.1014  140.1603  165.2268 C.ar    1  UNL1        0.0143
      3 C         138.0997  140.0201  163.7334 C.ar    1  UNL1       -0.0016
      4 C         138.4746  138.7119  163.1024 C.ar    1  UNL1       -0.0061
      5 C         138.8513  137.5439  163.9650 C.ar    1  UNL1       -0.0016
      6 C         138.8530  137.6841  165.4584 C.ar    1  UNL1        0.0143
      7 N         138.4798  139.1325  167.5827 N.pl3   1  UNL1       -0.3125
      8 H         137.8051  138.6604  168.1222 H       1  UNL1        0.1522
      9 BR        142.5991  142.5703  170.2685 Br      1  UNL1       -0.0490
     10 C         141.5693  141.7108  169.5970 C.ar    1  UNL1        0.0346
     11 C         141.8550  141.1096  168.2529 C.ar    1  UNL1        0.0080
     12 C         140.8252  140.2501  167.5814 C.ar    1  UNL1        0.0151
     13 C         139.5096  139.9919  168.2542 C.ar    1  UNL1        0.0483
     14 C         139.2238  140.5932  169.5984 C.ar    1  UNL1        0.0151
     15 C         140.2537  141.4526  170.2698 C.ar    1  UNL1        0.0080
     16 C         138.4729  138.5717  161.6090 C.3     1  UNL1        0.0991
     17 N         138.9937  139.6860  160.7505 N.3     1  UNL1       -0.2688
     18 C         138.0371  140.5645  160.0001 C.3     1  UNL1        0.0751
     19 C         138.5579  141.6788  159.1416 C.3     1  UNL1        0.0488
     20 C         140.0353  141.9146  159.0335 C.3     1  UNL1        0.1142
     21 C         140.9919  141.0361  159.7839 C.3     1  UNL1        0.0488
     22 C         140.4711  139.9218  160.6424 C.3     1  UNL1        0.0751
     23 O         139.0787  142.7932  158.2831 O.3     1  UNL1       -0.3540
     24 C         139.5995  143.9075  157.4246 C.3     1  UNL1        0.1476
     25 C         141.0769  144.1433  157.3165 C.3     1  UNL1        0.0647
     26 C         142.0335  143.2648  158.0669 C.ar    1  UNL1        0.0080
     27 S         143.5309  143.2562  158.1543 S.2     1  UNL1       -0.0909
     28 C         143.9356  142.1366  159.0668 C.ar    1  UNL1        0.0349
     29 C         142.6883  141.4532  159.5434 C.ar    1  UNL1        0.0051
     30 C         141.5127  142.1504  158.9254 C.ar    1  UNL1        0.0047
@<TRIPOS>BOND
     1     9    10    1
     2    10    11   ar
     3    11    12   ar
     4    12    13   ar
     5    13     7    1
     6     7     1    1
     7     1     2   ar
     8     2     3   ar
     9     3     4   ar
    10     4    16    1
    11    16    17    1
    12    17    18    1
    13    18    19    1
    14    19    20    1
    15    20    21    1
    16    21    22    1
    17    20    23    1
    18    23    24    1
    19    24    25    1
    20    25    26    1
    21    26    27   ar
    22    27    28   ar
    23    28    29   ar
    24    29    30   ar
    25     4     5   ar
    26     5     6   ar
    27    13    14   ar
    28    14    15   ar
    29    15    10   ar
    30     6     1   ar
    31    22    17    1
    32    30    26   ar
    33    30    20    1
    34     7     8    1
@<TRIPOS>MOLECULE
*****
 30 34 0 0 0
SMALL
GASTEIGER

@<TRIPOS>ATOM
      1 C         138.5745  139.0716  165.8253 C.ar    1  UNL1        0.0483
      2 C         138.9514  137.7951  165.1334 C.ar    1  UNL1        0.0143
      3 C         138.8450  137.6914  163.6409 C.ar    1  UNL1       -0.0016
      4 C         138.3617  138.8641  162.8400 C.ar    1  UNL1       -0.0061
      5 C         137.9848  140.1405  163.5319 C.ar    1  UNL1       -0.0016
      6 C         138.0912  140.2443  165.0245 C.ar    1  UNL1        0.0143
      7 N         138.6809  139.1754  167.3179 N.pl3   1  UNL1       -0.3125
      8 H         138.0106  138.7376  167.8908 H       1  UNL1        0.1522
      9 BR        143.1920  142.2583  169.7969 Br      1  UNL1       -0.0490
     10 C         142.0642  141.4876  169.1771 C.ar    1  UNL1        0.0346
     11 C         142.2495  140.8309  167.8413 C.ar    1  UNL1        0.0080
     12 C         141.1218  140.0602  167.2216 C.ar    1  UNL1        0.0151
     13 C         139.8087  139.9461  167.9376 C.ar    1  UNL1        0.0483
     14 C         139.6233  140.6028  169.2735 C.ar    1  UNL1        0.0151
     15 C         140.7511  141.3735  169.8932 C.ar    1  UNL1        0.0080
     16 C         138.2553  138.7603  161.3474 C.3     1  UNL1        0.0991
     17 N         139.4225  139.1381  160.4842 N.3     1  UNL1       -0.2688
     18 C         139.6587  138.4227  159.1872 C.3     1  UNL1        0.0751
     19 C         140.8258  138.8005  158.3240 C.3     1  UNL1        0.0488
     20 C         141.7567  139.8937  158.7580 C.3     1  UNL1        0.1142
     21 C         141.5206  140.6091  160.0550 C.3     1  UNL1        0.0488
     22 C         140.3534  140.2313  160.9182 C.3     1  UNL1        0.0751
     23 O         141.9930  139.1783  157.4608 O.3     1  UNL1       -0.3540
     24 C         143.1601  139.5561  156.5977 C.3     1  UNL1        0.1476
     25 C         144.0910  140.6493  157.0316 C.3     1  UNL1        0.0647
     26 C         143.8549  141.3647  158.3287 C.ar    1  UNL1        0.0080
     27 S         144.5970  142.4745  159.0124 S.2     1  UNL1       -0.0909
     28 C         143.8885  142.7826  160.2982 C.ar    1  UNL1        0.0349
     29 C         142.7085  141.8632  160.4091 C.ar    1  UNL1        0.0051
     30 C         142.6877  140.9869  159.1919 C.ar    1  UNL1        0.0047
@<TRIPOS>BOND
     1     9    10    1
     2    10    11   ar
     3    11    12   ar
     4    12    13   ar
     5    13     7    1
     6     7     1    1
     7     1     2   ar
     8     2     3   ar
     9     3     4   ar
    10     4    16    1
    11    16    17    1
    12    17    18    1
    13    18    19    1
    14    19    20    1
    15    20    21    1
    16    21    22    1
    17    20    23    1
    18    23    24    1
    19    24    25    1
    20    25    26    1
    21    26    27   ar
    22    27    28   ar
    23    28    29   ar
    24    29    30   ar
    25     4     5   ar
    26     5     6   ar
    27    13    14   ar
    28    14    15   ar
    29    15    10   ar
    30     6     1   ar
    31    22    17    1
    32    30    26   ar
    33    30    20    1
    34     7     8    1
@<TRIPOS>MOLECULE
*****
 30 34 0 0 0
SMALL
GASTEIGER

@<TRIPOS>ATOM
      1 C         138.5704  139.0001  165.8802 C.ar    1  UNL1        0.0483
      2 C         138.9751  137.7850  165.0994 C.ar    1  UNL1        0.0143
      3 C         138.8872  137.7920  163.6020 C.ar    1  UNL1       -0.0016
      4 C         138.3944  139.0142  162.8853 C.ar    1  UNL1       -0.0061
      5 C         137.9896  140.2293  163.6661 C.ar    1  UNL1       -0.0016
      6 C         138.0776  140.2223  165.1636 C.ar    1  UNL1        0.0143
      7 N         138.6584  138.9932  167.3775 N.pl3   1  UNL1       -0.3125
      8 H         138.1223  138.3530  167.8991 H       1  UNL1        0.1522
      9 BR        142.2771  142.8668  170.1882 Br      1  UNL1       -0.0490
     10 C         141.3724  141.8984  169.4856 C.ar    1  UNL1        0.0346
     11 C         140.1085  141.4365  170.1483 C.ar    1  UNL1        0.0080
     12 C         139.2039  140.4681  169.4456 C.ar    1  UNL1        0.0151
     13 C         139.5630  139.9616  168.0802 C.ar    1  UNL1        0.0483
     14 C         140.8270  140.4234  167.4174 C.ar    1  UNL1        0.0151
     15 C         141.7316  141.3918  168.1201 C.ar    1  UNL1        0.0080
     16 C         138.3064  139.0211  161.3880 C.3     1  UNL1        0.0991
     17 N         139.5241  139.3254  160.5665 N.3     1  UNL1       -0.2688
     18 C         140.4677  140.4090  160.9971 C.3     1  UNL1        0.0751
     19 C         141.6853  140.7132  160.1756 C.3     1  UNL1        0.0488
     20 C         141.9593  139.9338  158.9236 C.3     1  UNL1        0.1142
     21 C         141.0157  138.8503  158.4931 C.3     1  UNL1        0.0488
     22 C         139.7981  138.5460  159.3145 C.3     1  UNL1        0.0751
     23 O         142.9030  141.0175  159.3541 O.3     1  UNL1       -0.3540
     24 C         144.1206  141.3217  158.5327 C.3     1  UNL1        0.1476
     25 C         144.3946  140.5423  157.2807 C.3     1  UNL1        0.0647
     26 C         143.4510  139.4587  156.8501 C.ar    1  UNL1        0.0080
     27 S         143.4596  138.5298  155.6724 S.2     1  UNL1       -0.0909
     28 C         142.2472  137.6514  155.7660 C.ar    1  UNL1        0.0349
     29 C         141.4894  138.0375  157.0016 C.ar    1  UNL1        0.0051
     30 C         142.2333  139.1545  157.6716 C.ar    1  UNL1        0.0047
@<TRIPOS>BOND
     1     9    10    1
     2    10    11   ar
     3    11    12   ar
     4    12    13   ar
     5    13     7    1
     6     7     1    1
     7     1     2   ar
     8     2     3   ar
     9     3     4   ar
    10     4    16    1
    11    16    17    1
    12    17    18    1
    13    18    19    1
    14    19    20    1
    15    20    21    1
    16    21    22    1
    17    20    23    1
    18    23    24    1
    19    24    25    1
    20    25    26    1
    21    26    27   ar
    22    27    28   ar
    23    28    29   ar
    24    29    30   ar
    25     4     5   ar
    26     5     6   ar
    27    13    14   ar
    28    14    15   ar
    29    15    10   ar
    30     6     1   ar
    31    22    17    1
    32    30    26   ar
    33    30    20    1
    34     7     8    1
@<TRIPOS>MOLECULE
*****
 30 34 0 0 0
SMALL
GASTEIGER

@<TRIPOS>ATOM
      1 C         140.8336  139.1041  160.2634 C.ar    1  UNL1        0.0483
      2 C         139.7757  138.7549  159.2590 C.ar    1  UNL1        0.0143
      3 C         140.1621  138.1456  157.9439 C.ar    1  UNL1       -0.0016
      4 C         141.6064  137.8855  157.6332 C.ar    1  UNL1       -0.0061
      5 C         142.6642  138.2346  158.6377 C.ar    1  UNL1       -0.0016
      6 C         142.2778  138.8439  159.9528 C.ar    1  UNL1        0.0143
      7 N         140.4473  139.7134  161.5785 N.pl3   1  UNL1       -0.3125
      8 H         139.6916  140.3426  161.6264 H       1  UNL1        0.1522
      9 BR        143.5072  138.3158  166.5468 Br      1  UNL1       -0.0490
     10 C         142.7422  138.6652  165.3047 C.ar    1  UNL1        0.0346
     11 C         141.7852  137.6752  164.7099 C.ar    1  UNL1        0.0080
     12 C         141.0202  138.0246  163.4679 C.ar    1  UNL1        0.0151
     13 C         141.2123  139.3640  162.8206 C.ar    1  UNL1        0.0483
     14 C         142.1694  140.3541  163.4154 C.ar    1  UNL1        0.0151
     15 C         142.9343  140.0047  164.6574 C.ar    1  UNL1        0.0080
     16 C         141.9927  137.2762  156.3182 C.3     1  UNL1        0.0991
     17 N         142.0577  135.7846  156.1728 N.3     1  UNL1       -0.2688
     18 C         141.0906  135.0760  155.2714 C.3     1  UNL1        0.0751
     19 C         141.1557  133.5845  155.1261 C.3     1  UNL1        0.0488
     20 C         142.1878  132.8016  155.8822 C.3     1  UNL1        0.1142
     21 C         143.1549  133.5102  156.7837 C.3     1  UNL1        0.0488
     22 C         143.0898  135.0017  156.9290 C.3     1  UNL1        0.0751
     23 O         141.2207  132.0929  154.9808 O.3     1  UNL1       -0.3540
     24 C         141.2857  130.6015  154.8355 C.3     1  UNL1        0.1476
     25 C         142.3178  129.8185  155.5916 C.3     1  UNL1        0.0647
     26 C         143.2849  130.5271  156.4931 C.ar    1  UNL1        0.0080
     27 S         144.4027  130.0254  157.3584 S.2     1  UNL1       -0.0909
     28 C         145.0286  131.2069  158.0384 C.ar    1  UNL1        0.0349
     29 C         144.2975  132.4388  157.5935 C.ar    1  UNL1        0.0051
     30 C         143.2199  132.0187  156.6384 C.ar    1  UNL1        0.0047
@<TRIPOS>BOND
     1     9    10    1
     2    10    11   ar
     3    11    12   ar
     4    12    13   ar
     5    13     7    1
     6     7     1    1
     7     1     2   ar
     8     2     3   ar
     9     3     4   ar
    10     4    16    1
    11    16    17    1
    12    17    18    1
    13    18    19    1
    14    19    20    1
    15    20    21    1
    16    21    22    1
    17    20    23    1
    18    23    24    1
    19    24    25    1
    20    25    26    1
    21    26    27   ar
    22    27    28   ar
    23    28    29   ar
    24    29    30   ar
    25     4     5   ar
    26     5     6   ar
    27    13    14   ar
    28    14    15   ar
    29    15    10   ar
    30     6     1   ar
    31    22    17    1
    32    30    26   ar
    33    30    20    1
    34     7     8    1
