@<TRIPOS>MOLECULE
*****
 31 34 0 0 0
SMALL
GASTEIGER

@<TRIPOS>ATOM
      1 C         140.0910  140.6645  168.2672 C.ar    1  UNL1        0.0327
      2 C         140.1277  140.5444  166.7725 C.ar    1  UNL1        0.0044
      3 C         139.1155  139.6943  166.0633 C.ar    1  UNL1        0.0193
      4 C         138.0667  138.9643  166.8488 C.ar    1  UNL1        0.1002
      5 N         138.0300  139.0845  168.3435 N.ar    1  UNL1       -0.2296
      6 C         139.0422  139.9346  169.0527 C.ar    1  UNL1        0.1254
      7 N         139.0054  140.0547  170.5475 N.pl3   1  UNL1       -0.3426
      8 H         138.3170  139.5756  171.0631 H       1  UNL1        0.1437
      9 H         139.6697  140.6126  171.0130 H       1  UNL1        0.1437
     10 C         143.1274  143.2147  170.3947 C.ar    1  UNL1        0.2250
     11 C         143.5406  141.9080  169.7851 C.ar    1  UNL1        0.0577
     12 C         142.5284  141.0579  169.0759 C.ar    1  UNL1        0.0064
     13 C         141.1031  141.5146  168.9764 C.ar    1  UNL1        0.0221
     14 C         140.6900  142.8213  169.5860 C.ar    1  UNL1        0.1021
     15 N         141.7021  143.6714  170.2952 N.ar    1  UNL1       -0.2101
     16 C         145.5977  143.9194  170.7835 C.3     1  UNL1        0.2542
     17 O         144.1396  144.0648  171.1039 O.3     1  UNL1       -0.4561
     18 C         139.1523  139.5742  164.5685 C.ar    1  UNL1        0.0015
     19 C         138.8066  138.2705  163.9122 C.ar    1  UNL1        0.0002
     20 C         138.8433  138.1504  162.4174 C.ar    1  UNL1        0.0045
     21 C         139.2257  139.3340  161.5790 C.ar    1  UNL1        0.0536
     22 C         139.5714  140.6377  162.2355 C.ar    1  UNL1        0.0045
     23 C         139.5347  140.7578  163.7302 C.ar    1  UNL1        0.0002
     24 C         139.2625  139.2140  160.0843 C.2     1  UNL1        0.2492
     25 O         138.0684  139.6154  159.2701 O.2     1  UNL1       -0.2699
     26 N         140.4933  138.6925  159.4039 N.am    1  UNL1       -0.2709
     27 C         141.6874  138.2911  160.2181 C.3     1  UNL1        0.1258
     28 C         142.9183  137.7697  159.5376 C.3     1  UNL1        0.1637
     29 O         142.9551  137.6496  158.0429 O.3     1  UNL1       -0.3501
     30 C         141.7610  138.0510  157.2286 C.3     1  UNL1        0.1637
     31 C         140.5301  138.5725  157.9091 C.3     1  UNL1        0.1258
@<TRIPOS>BOND
     1    16    17    1
     2    17    10    1
     3    10    11   ar
     4    11    12   ar
     5    12    13   ar
     6    13     1    1
     7     1     2   ar
     8     2     3   ar
     9     3    18    1
    10    18    19   ar
    11    19    20   ar
    12    20    21   ar
    13    21    24    1
    14    24    25    2
    15    24    26   am
    16    26    27    1
    17    27    28    1
    18    28    29    1
    19    29    30    1
    20    30    31    1
    21    21    22   ar
    22    22    23   ar
    23     3     4   ar
    24     4     5   ar
    25     5     6   ar
    26     6     7    1
    27    13    14   ar
    28    14    15   ar
    29    15    10   ar
    30     6     1   ar
    31    23    18   ar
    32    31    26    1
    33     7     8    1
    34     7     9    1
@<TRIPOS>MOLECULE
*****
 31 34 0 0 0
SMALL
GASTEIGER

@<TRIPOS>ATOM
      1 C         140.1209  140.9347  168.2347 C.ar    1  UNL1        0.0327
      2 C         139.9524  141.1138  166.7550 C.ar    1  UNL1        0.0044
      3 C         138.9163  140.3193  166.0166 C.ar    1  UNL1        0.0193
      4 C         138.0488  139.3457  166.7578 C.ar    1  UNL1        0.1002
      5 N         138.2173  139.1666  168.2375 N.ar    1  UNL1       -0.2296
      6 C         139.2534  139.9611  168.9759 C.ar    1  UNL1        0.1254
      7 N         139.4220  139.7820  170.4557 N.pl3   1  UNL1       -0.3426
      8 H         138.8526  139.1430  170.9422 H       1  UNL1        0.1437
      9 H         140.1020  140.3035  170.9403 H       1  UNL1        0.1437
     10 C         143.2292  143.3183  170.4499 C.ar    1  UNL1        0.2250
     11 C         143.6255  142.0787  169.7041 C.ar    1  UNL1        0.0577
     12 C         142.5894  141.2842  168.9657 C.ar    1  UNL1        0.0064
     13 C         141.1570  141.7292  168.9731 C.ar    1  UNL1        0.0221
     14 C         140.7607  142.9688  169.7189 C.ar    1  UNL1        0.1021
     15 N         141.7968  143.7633  170.4574 N.ar    1  UNL1       -0.2101
     16 C         145.7150  143.9705  170.8308 C.3     1  UNL1        0.2542
     17 O         144.2653  144.1128  171.1884 O.3     1  UNL1       -0.4561
     18 C         138.7477  140.4984  164.5368 C.ar    1  UNL1        0.0015
     19 C         137.6811  141.4113  164.0085 C.ar    1  UNL1        0.0002
     20 C         137.5126  141.5904  162.5288 C.ar    1  UNL1        0.0045
     21 C         138.4107  140.8567  161.5774 C.ar    1  UNL1        0.0536
     22 C         139.4773  139.9438  162.1058 C.ar    1  UNL1        0.0045
     23 C         139.6458  139.7647  163.5855 C.ar    1  UNL1        0.0002
     24 C         138.2422  141.0357  160.0977 C.2     1  UNL1        0.2492
     25 O         137.4557  140.0336  159.3057 O.2     1  UNL1       -0.2699
     26 N         138.8601  142.2169  159.4101 N.am    1  UNL1       -0.2709
     27 C         139.6465  143.2190  160.2021 C.3     1  UNL1        0.1258
     28 C         140.2644  144.4003  159.5144 C.3     1  UNL1        0.1637
     29 O         140.0959  144.5794  158.0347 O.3     1  UNL1       -0.3501
     30 C         139.3095  143.5773  157.2427 C.3     1  UNL1        0.1637
     31 C         138.6916  142.3961  157.9303 C.3     1  UNL1        0.1258
@<TRIPOS>BOND
     1    16    17    1
     2    17    10    1
     3    10    11   ar
     4    11    12   ar
     5    12    13   ar
     6    13     1    1
     7     1     2   ar
     8     2     3   ar
     9     3    18    1
    10    18    19   ar
    11    19    20   ar
    12    20    21   ar
    13    21    24    1
    14    24    25    2
    15    24    26   am
    16    26    27    1
    17    27    28    1
    18    28    29    1
    19    29    30    1
    20    30    31    1
    21    21    22   ar
    22    22    23   ar
    23     3     4   ar
    24     4     5   ar
    25     5     6   ar
    26     6     7    1
    27    13    14   ar
    28    14    15   ar
    29    15    10   ar
    30     6     1   ar
    31    23    18   ar
    32    31    26    1
    33     7     8    1
    34     7     9    1
@<TRIPOS>MOLECULE
*****
 31 34 0 0 0
SMALL
GASTEIGER

@<TRIPOS>ATOM
      1 C         140.3181  141.0684  168.0256 C.ar    1  UNL1        0.0327
      2 C         140.1753  141.3406  166.5575 C.ar    1  UNL1        0.0044
      3 C         139.1957  140.5517  165.7402 C.ar    1  UNL1        0.0193
      4 C         138.3589  139.4905  166.3910 C.ar    1  UNL1        0.1002
      5 N         138.5017  139.2183  167.8592 N.ar    1  UNL1       -0.2296
      6 C         139.4813  140.0072  168.6765 C.ar    1  UNL1        0.1254
      7 N         139.6241  139.7349  170.1447 N.pl3   1  UNL1       -0.3426
      8 H         139.0748  139.0384  170.5718 H       1  UNL1        0.1437
      9 H         140.2670  140.2527  170.6811 H       1  UNL1        0.1437
     10 C         143.2568  143.4352  170.4775 C.ar    1  UNL1        0.2250
     11 C         143.7240  142.2510  169.6843 C.ar    1  UNL1        0.0577
     12 C         142.7444  141.4621  168.8670 C.ar    1  UNL1        0.0064
     13 C         141.2977  141.8573  168.8429 C.ar    1  UNL1        0.0221
     14 C         140.8305  143.0416  169.6362 C.ar    1  UNL1        0.1021
     15 N         141.8101  143.8305  170.4535 N.ar    1  UNL1       -0.2101
     16 C         145.6987  144.1770  170.9642 C.3     1  UNL1        0.2542
     17 O         144.2364  144.2242  171.2948 O.3     1  UNL1       -0.4561
     18 C         139.0529  140.8240  164.2720 C.ar    1  UNL1        0.0015
     19 C         140.2738  141.0297  163.4252 C.ar    1  UNL1        0.0002
     20 C         140.1310  141.3019  161.9570 C.ar    1  UNL1        0.0045
     21 C         138.7674  141.3685  161.3357 C.ar    1  UNL1        0.0536
     22 C         137.5465  141.1628  162.1826 C.ar    1  UNL1        0.0045
     23 C         137.6893  140.8905  163.6507 C.ar    1  UNL1        0.0002
     24 C         138.6246  141.6407  159.8675 C.2     1  UNL1        0.2492
     25 O         138.1973  142.9986  159.3946 O.2     1  UNL1       -0.2699
     26 N         138.9090  140.5551  158.8723 N.am    1  UNL1       -0.2709
     27 C         139.3363  139.1973  159.3452 C.3     1  UNL1        0.1258
     28 C         139.6207  138.1116  158.3499 C.3     1  UNL1        0.1637
     29 O         139.4779  138.3839  156.8818 O.3     1  UNL1       -0.3501
     30 C         139.0506  139.7418  156.4089 C.3     1  UNL1        0.1637
     31 C         138.7662  140.8274  157.4041 C.3     1  UNL1        0.1258
@<TRIPOS>BOND
     1    16    17    1
     2    17    10    1
     3    10    11   ar
     4    11    12   ar
     5    12    13   ar
     6    13     1    1
     7     1     2   ar
     8     2     3   ar
     9     3    18    1
    10    18    19   ar
    11    19    20   ar
    12    20    21   ar
    13    21    24    1
    14    24    25    2
    15    24    26   am
    16    26    27    1
    17    27    28    1
    18    28    29    1
    19    29    30    1
    20    30    31    1
    21    21    22   ar
    22    22    23   ar
    23     3     4   ar
    24     4     5   ar
    25     5     6   ar
    26     6     7    1
    27    13    14   ar
    28    14    15   ar
    29    15    10   ar
    30     6     1   ar
    31    23    18   ar
    32    31    26    1
    33     7     8    1
    34     7     9    1
@<TRIPOS>MOLECULE
*****
 31 34 0 0 0
SMALL
GASTEIGER

@<TRIPOS>ATOM
      1 C         142.8651  138.0713  157.9939 C.ar    1  UNL1        0.0327
      2 C         142.8788  137.9474  159.4886 C.ar    1  UNL1        0.0044
      3 C         143.3072  139.1103  160.3337 C.ar    1  UNL1        0.0193
      4 C         143.7219  140.3971  159.6840 C.ar    1  UNL1        0.1002
      5 N         143.7082  140.5210  158.1892 N.ar    1  UNL1       -0.2296
      6 C         143.2798  139.3580  157.3441 C.ar    1  UNL1        0.1254
      7 N         143.2661  139.4820  155.8493 N.pl3   1  UNL1       -0.3426
      8 H         143.5383  140.3265  155.4228 H       1  UNL1        0.1437
      9 H         142.9849  138.7187  155.2946 H       1  UNL1        0.1437
     10 C         141.5800  134.5825  155.4587 C.ar    1  UNL1        0.2250
     11 C         142.8792  134.5280  156.2063 C.ar    1  UNL1        0.0577
     12 C         143.3076  135.6909  157.0514 C.ar    1  UNL1        0.0064
     13 C         142.4367  136.9083  157.1488 C.ar    1  UNL1        0.0221
     14 C         141.1375  136.9628  156.4012 C.ar    1  UNL1        0.1021
     15 N         140.7091  135.7999  155.5561 N.ar    1  UNL1       -0.2101
     16 C         141.6844  132.0472  154.9009 C.3     1  UNL1        0.2542
     17 O         141.1516  133.4196  154.6136 O.3     1  UNL1       -0.4561
     18 C         143.3209  138.9864  161.8286 C.ar    1  UNL1        0.0015
     19 C         142.3374  138.0860  162.5155 C.ar    1  UNL1        0.0002
     20 C         142.3511  137.9621  164.0104 C.ar    1  UNL1        0.0045
     21 C         143.3483  138.7386  164.8182 C.ar    1  UNL1        0.0536
     22 C         144.3319  139.6390  164.1312 C.ar    1  UNL1        0.0045
     23 C         144.3181  139.7629  162.6364 C.ar    1  UNL1        0.0002
     24 C         143.3620  138.6147  166.3130 C.2     1  UNL1        0.2492
     25 O         144.2798  137.6305  166.9756 O.2     1  UNL1       -0.2699
     26 N         142.4580  139.4750  167.1451 N.am    1  UNL1       -0.2709
     27 C         141.5402  140.4591  166.4825 C.3     1  UNL1        0.1258
     28 C         140.6361  141.3194  167.3148 C.3     1  UNL1        0.1637
     29 O         140.6498  141.1956  168.8095 O.3     1  UNL1       -0.3501
     30 C         141.5676  140.2114  169.4722 C.3     1  UNL1        0.1637
     31 C         142.4717  139.3511  168.6400 C.3     1  UNL1        0.1258
@<TRIPOS>BOND
     1    16    17    1
     2    17    10    1
     3    10    11   ar
     4    11    12   ar
     5    12    13   ar
     6    13     1    1
     7     1     2   ar
     8     2     3   ar
     9     3    18    1
    10    18    19   ar
    11    19    20   ar
    12    20    21   ar
    13    21    24    1
    14    24    25    2
    15    24    26   am
    16    26    27    1
    17    27    28    1
    18    28    29    1
    19    29    30    1
    20    30    31    1
    21    21    22   ar
    22    22    23   ar
    23     3     4   ar
    24     4     5   ar
    25     5     6   ar
    26     6     7    1
    27    13    14   ar
    28    14    15   ar
    29    15    10   ar
    30     6     1   ar
    31    23    18   ar
    32    31    26    1
    33     7     8    1
    34     7     9    1
@<TRIPOS>MOLECULE
*****
 31 34 0 0 0
SMALL
GASTEIGER

@<TRIPOS>ATOM
      1 C         140.0416  139.7511  159.4496 C.ar    1  UNL1        0.0327
      2 C         140.1129  139.7205  160.9475 C.ar    1  UNL1        0.0044
      3 C         138.8516  139.7421  161.7591 C.ar    1  UNL1        0.0193
      4 C         137.5189  139.7943  161.0727 C.ar    1  UNL1        0.1002
      5 N         137.4476  139.8249  159.5747 N.ar    1  UNL1       -0.2296
      6 C         138.7089  139.8033  158.7632 C.ar    1  UNL1        0.1254
      7 N         138.6375  139.8340  157.2651 N.pl3   1  UNL1       -0.3426
      8 H         137.7628  139.8682  156.8146 H       1  UNL1        0.1437
      9 H         139.4653  139.8198  156.7324 H       1  UNL1        0.1437
     10 C         143.8255  139.6862  157.0149 C.ar    1  UNL1        0.2250
     11 C         143.1796  140.9946  157.3623 C.ar    1  UNL1        0.0577
     12 C         141.9182  141.0163  158.1739 C.ar    1  UNL1        0.0064
     13 C         141.3029  139.7295  158.6380 C.ar    1  UNL1        0.0221
     14 C         141.9489  138.4211  158.2906 C.ar    1  UNL1        0.1021
     15 N         143.2102  138.3994  157.4791 N.ar    1  UNL1       -0.2101
     16 C         145.0787  139.0851  154.8199 C.3     1  UNL1        0.2542
     17 O         145.0869  139.6646  156.2034 O.3     1  UNL1       -0.4561
     18 C         138.9230  139.7115  163.2571 C.ar    1  UNL1        0.0015
     19 C         138.6936  140.9672  164.0447 C.ar    1  UNL1        0.0002
     20 C         138.7650  140.9366  165.5428 C.ar    1  UNL1        0.0045
     21 C         139.0658  139.6502  166.2531 C.ar    1  UNL1        0.0536
     22 C         139.2952  138.3943  165.4654 C.ar    1  UNL1        0.0045
     23 C         139.2238  138.4250  163.9674 C.ar    1  UNL1        0.0002
     24 C         139.1372  139.6195  167.7510 C.2     1  UNL1        0.2492
     25 O         137.9658  139.1266  168.5478 O.2     1  UNL1       -0.2699
     26 N         140.3801  140.0817  168.4522 N.am    1  UNL1       -0.2709
     27 C         141.5515  140.5745  167.6554 C.3     1  UNL1        0.1258
     28 C         142.7944  141.0367  168.3567 C.3     1  UNL1        0.1637
     29 O         142.8658  141.0060  169.8547 O.3     1  UNL1       -0.3501
     30 C         141.6944  140.5132  170.6514 C.3     1  UNL1        0.1637
     31 C         140.4515  140.0510  169.9503 C.3     1  UNL1        0.1258
@<TRIPOS>BOND
     1    16    17    1
     2    17    10    1
     3    10    11   ar
     4    11    12   ar
     5    12    13   ar
     6    13     1    1
     7     1     2   ar
     8     2     3   ar
     9     3    18    1
    10    18    19   ar
    11    19    20   ar
    12    20    21   ar
    13    21    24    1
    14    24    25    2
    15    24    26   am
    16    26    27    1
    17    27    28    1
    18    28    29    1
    19    29    30    1
    20    30    31    1
    21    21    22   ar
    22    22    23   ar
    23     3     4   ar
    24     4     5   ar
    25     5     6   ar
    26     6     7    1
    27    13    14   ar
    28    14    15   ar
    29    15    10   ar
    30     6     1   ar
    31    23    18   ar
    32    31    26    1
    33     7     8    1
    34     7     9    1
@<TRIPOS>MOLECULE
*****
 31 34 0 0 0
SMALL
GASTEIGER

@<TRIPOS>ATOM
      1 C         143.0161  142.8270  159.9574 C.ar    1  UNL1        0.0327
      2 C         143.0154  142.2260  161.3317 C.ar    1  UNL1        0.0044
      3 C         142.3717  142.9596  162.4708 C.ar    1  UNL1        0.0193
      4 C         141.7288  144.2942  162.2356 C.ar    1  UNL1        0.1002
      5 N         141.7295  144.8953  160.8613 N.ar    1  UNL1       -0.2296
      6 C         142.3732  144.1616  159.7222 C.ar    1  UNL1        0.1254
      7 N         142.3739  144.7627  158.3478 N.pl3   1  UNL1       -0.3426
      8 H         141.9519  145.6387  158.1935 H       1  UNL1        0.1437
      9 H         142.7963  144.2813  157.6002 H       1  UNL1        0.1437
     10 C         144.9470  140.6262  156.5401 C.ar    1  UNL1        0.2250
     11 C         145.6307  141.8144  157.1488 C.ar    1  UNL1        0.0577
     12 C         144.9871  142.5480  158.2879 C.ar    1  UNL1        0.0064
     13 C         143.6597  142.0934  158.8183 C.ar    1  UNL1        0.0221
     14 C         142.9760  140.9052  158.2096 C.ar    1  UNL1        0.1021
     15 N         143.6196  140.1715  157.0705 N.ar    1  UNL1       -0.2101
     16 C         144.9595  138.6435  154.8612 C.3     1  UNL1        0.2542
     17 O         145.5906  139.8925  155.4010 O.3     1  UNL1       -0.4561
     18 C         142.3710  142.3585  163.8451 C.ar    1  UNL1        0.0015
     19 C         143.3762  142.8113  164.8622 C.ar    1  UNL1        0.0002
     20 C         143.3755  142.2102  166.2366 C.ar    1  UNL1        0.0045
     21 C         142.3696  141.1563  166.5937 C.ar    1  UNL1        0.0536
     22 C         141.3644  140.7036  165.5765 C.ar    1  UNL1        0.0045
     23 C         141.3651  141.3047  164.2023 C.ar    1  UNL1        0.0002
     24 C         142.3689  140.5553  167.9680 C.2     1  UNL1        0.2492
     25 O         143.0851  139.2619  168.2213 O.2     1  UNL1       -0.2699
     26 N         141.6519  141.2475  169.0890 N.am    1  UNL1       -0.2709
     27 C         140.9356  142.5409  168.8357 C.3     1  UNL1        0.1258
     28 C         140.2186  143.2332  169.9567 C.3     1  UNL1        0.1637
     29 O         140.2178  142.6321  171.3310 O.3     1  UNL1       -0.3501
     30 C         140.9341  141.3387  171.5843 C.3     1  UNL1        0.1637
     31 C         141.6511  140.6465  170.4633 C.3     1  UNL1        0.1258
@<TRIPOS>BOND
     1    16    17    1
     2    17    10    1
     3    10    11   ar
     4    11    12   ar
     5    12    13   ar
     6    13     1    1
     7     1     2   ar
     8     2     3   ar
     9     3    18    1
    10    18    19   ar
    11    19    20   ar
    12    20    21   ar
    13    21    24    1
    14    24    25    2
    15    24    26   am
    16    26    27    1
    17    27    28    1
    18    28    29    1
    19    29    30    1
    20    30    31    1
    21    21    22   ar
    22    22    23   ar
    23     3     4   ar
    24     4     5   ar
    25     5     6   ar
    26     6     7    1
    27    13    14   ar
    28    14    15   ar
    29    15    10   ar
    30     6     1   ar
    31    23    18   ar
    32    31    26    1
    33     7     8    1
    34     7     9    1
@<TRIPOS>MOLECULE
*****
 31 34 0 0 0
SMALL
GASTEIGER

@<TRIPOS>ATOM
      1 C         140.2379  143.1770  164.5184 C.ar    1  UNL1        0.0327
      2 C         141.1539  142.7513  163.4096 C.ar    1  UNL1        0.0044
      3 C         141.3113  143.6151  162.1934 C.ar    1  UNL1        0.0193
      4 C         140.5525  144.9045  162.0861 C.ar    1  UNL1        0.1002
      5 N         139.6365  145.3302  163.1949 N.ar    1  UNL1       -0.2296
      6 C         139.4791  144.4664  164.4111 C.ar    1  UNL1        0.1254
      7 N         138.5630  144.8921  165.5200 N.pl3   1  UNL1       -0.3426
      8 H         138.0650  145.7385  165.4495 H       1  UNL1        0.1437
      9 H         138.4598  144.3252  166.3182 H       1  UNL1        0.1437
     10 C         139.7659  140.5856  168.1670 C.ar    1  UNL1        0.2250
     11 C         140.5660  141.8520  168.2449 C.ar    1  UNL1        0.0577
     12 C         140.7233  142.7157  167.0287 C.ar    1  UNL1        0.0064
     13 C         140.0806  142.3132  165.7346 C.ar    1  UNL1        0.0221
     14 C         139.2805  141.0468  165.6567 C.ar    1  UNL1        0.1021
     15 N         139.1232  140.1830  166.8729 N.ar    1  UNL1       -0.2101
     16 C         140.2249  140.1402  170.6851 C.3     1  UNL1        0.2542
     17 O         139.6086  139.7218  169.3832 O.3     1  UNL1       -0.4561
     18 C         142.2274  143.1893  161.0845 C.ar    1  UNL1        0.0015
     19 C         142.1063  143.8186  159.7283 C.ar    1  UNL1        0.0002
     20 C         143.0224  143.3929  158.6194 C.ar    1  UNL1        0.0045
     21 C         144.0596  142.3379  158.8668 C.ar    1  UNL1        0.0536
     22 C         144.1807  141.7086  160.2231 C.ar    1  UNL1        0.0045
     23 C         143.2646  142.1343  161.3319 C.ar    1  UNL1        0.0002
     24 C         144.9757  141.9121  157.7580 C.2     1  UNL1        0.2492
     25 O         146.2490  142.6642  157.5067 O.2     1  UNL1       -0.2699
     26 N         144.6185  140.7344  156.9006 N.am    1  UNL1       -0.2709
     27 C         143.3452  139.9824  157.1519 C.3     1  UNL1        0.1258
     28 C         142.9880  138.8046  156.2944 C.3     1  UNL1        0.1637
     29 O         143.9041  138.3789  155.1856 O.3     1  UNL1       -0.3501
     30 C         145.1774  139.1309  154.9343 C.3     1  UNL1        0.1637
     31 C         145.5346  140.3086  155.7917 C.3     1  UNL1        0.1258
@<TRIPOS>BOND
     1    16    17    1
     2    17    10    1
     3    10    11   ar
     4    11    12   ar
     5    12    13   ar
     6    13     1    1
     7     1     2   ar
     8     2     3   ar
     9     3    18    1
    10    18    19   ar
    11    19    20   ar
    12    20    21   ar
    13    21    24    1
    14    24    25    2
    15    24    26   am
    16    26    27    1
    17    27    28    1
    18    28    29    1
    19    29    30    1
    20    30    31    1
    21    21    22   ar
    22    22    23   ar
    23     3     4   ar
    24     4     5   ar
    25     5     6   ar
    26     6     7    1
    27    13    14   ar
    28    14    15   ar
    29    15    10   ar
    30     6     1   ar
    31    23    18   ar
    32    31    26    1
    33     7     8    1
    34     7     9    1
@<TRIPOS>MOLECULE
*****
 31 34 0 0 0
SMALL
GASTEIGER

@<TRIPOS>ATOM
      1 C         142.6974  136.6960  156.7148 C.ar    1  UNL1        0.0327
      2 C         141.8308  137.4066  157.7117 C.ar    1  UNL1        0.0044
      3 C         142.0435  138.8662  157.9846 C.ar    1  UNL1        0.0193
      4 C         143.1227  139.6151  157.2605 C.ar    1  UNL1        0.1002
      5 N         143.9893  138.9045  156.2636 N.ar    1  UNL1       -0.2296
      6 C         143.7766  137.4449  155.9907 C.ar    1  UNL1        0.1254
      7 N         144.6433  136.7343  154.9937 N.pl3   1  UNL1       -0.3426
      8 H         145.3516  137.2258  154.5184 H       1  UNL1        0.1437
      9 H         144.5037  135.7763  154.8146 H       1  UNL1        0.1437
     10 C         142.0595  132.3173  155.8962 C.ar    1  UNL1        0.2250
     11 C         141.3921  133.3467  155.0331 C.ar    1  UNL1        0.0577
     12 C         141.6048  134.8062  155.3059 C.ar    1  UNL1        0.0064
     13 C         142.4848  135.2364  156.4419 C.ar    1  UNL1        0.0221
     14 C         143.1521  134.2071  157.3050 C.ar    1  UNL1        0.1021
     15 N         142.9395  132.7475  157.0321 N.ar    1  UNL1       -0.2101
     16 C         140.6380  130.4060  154.8587 C.3     1  UNL1        0.2542
     17 O         141.8468  130.8577  155.6233 O.3     1  UNL1       -0.4561
     18 C         141.1768  139.5768  158.9816 C.ar    1  UNL1        0.0015
     19 C         140.5030  140.8636  158.6072 C.ar    1  UNL1        0.0002
     20 C         139.6364  141.5742  159.6042 C.ar    1  UNL1        0.0045
     21 C         139.4435  140.9980  160.9757 C.ar    1  UNL1        0.0536
     22 C         140.1174  139.7112  161.3501 C.ar    1  UNL1        0.0045
     23 C         140.9840  139.0007  160.3531 C.ar    1  UNL1        0.0002
     24 C         138.5769  141.7086  161.9726 C.2     1  UNL1        0.2492
     25 O         137.1341  141.3257  162.1198 O.2     1  UNL1       -0.2699
     26 N         139.1532  142.8021  162.8225 N.am    1  UNL1       -0.2709
     27 C         140.5960  143.1850  162.6753 C.3     1  UNL1        0.1258
     28 C         141.1722  144.2785  163.5252 C.3     1  UNL1        0.1637
     29 O         140.3056  144.9891  164.5222 O.3     1  UNL1       -0.3501
     30 C         138.8628  144.6062  164.6693 C.3     1  UNL1        0.1637
     31 C         138.2865  143.5127  163.8195 C.3     1  UNL1        0.1258
@<TRIPOS>BOND
     1    16    17    1
     2    17    10    1
     3    10    11   ar
     4    11    12   ar
     5    12    13   ar
     6    13     1    1
     7     1     2   ar
     8     2     3   ar
     9     3    18    1
    10    18    19   ar
    11    19    20   ar
    12    20    21   ar
    13    21    24    1
    14    24    25    2
    15    24    26   am
    16    26    27    1
    17    27    28    1
    18    28    29    1
    19    29    30    1
    20    30    31    1
    21    21    22   ar
    22    22    23   ar
    23     3     4   ar
    24     4     5   ar
    25     5     6   ar
    26     6     7    1
    27    13    14   ar
    28    14    15   ar
    29    15    10   ar
    30     6     1   ar
    31    23    18   ar
    32    31    26    1
    33     7     8    1
    34     7     9    1
@<TRIPOS>MOLECULE
*****
 31 34 0 0 0
SMALL
GASTEIGER

@<TRIPOS>ATOM
      1 C         140.3001  140.5805  167.9843 C.ar    1  UNL1        0.0327
      2 C         140.5775  140.3678  166.5257 C.ar    1  UNL1        0.0044
      3 C         139.6785  139.4845  165.7123 C.ar    1  UNL1        0.0193
      4 C         138.5020  138.8140  166.3575 C.ar    1  UNL1        0.1002
      5 N         138.2247  139.0267  167.8162 N.ar    1  UNL1       -0.2296
      6 C         139.1237  139.9099  168.6296 C.ar    1  UNL1        0.1254
      7 N         138.8462  140.1226  170.0883 N.pl3   1  UNL1       -0.3426
      8 H         138.0741  139.6825  170.5118 H       1  UNL1        0.1437
      9 H         139.4363  140.7023  170.6222 H       1  UNL1        0.1437
     10 C         142.9971  143.2302  170.4246 C.ar    1  UNL1        0.2250
     11 C         143.5161  141.9349  169.8745 C.ar    1  UNL1        0.0577
     12 C         142.6171  141.0516  169.0610 C.ar    1  UNL1        0.0064
     13 C         141.1991  141.4637  168.7978 C.ar    1  UNL1        0.0221
     14 C         140.6801  142.7591  169.3479 C.ar    1  UNL1        0.1021
     15 N         141.5791  143.6423  170.1613 N.ar    1  UNL1       -0.2101
     16 C         145.3757  144.1079  170.9918 C.3     1  UNL1        0.2542
     17 O         143.8961  144.1135  171.2380 O.3     1  UNL1       -0.4561
     18 C         139.9559  139.2718  164.2535 C.ar    1  UNL1        0.0015
     19 C         139.8589  140.4224  163.2961 C.ar    1  UNL1        0.0002
     20 C         140.1363  140.2097  161.8373 C.ar    1  UNL1        0.0045
     21 C         140.5108  138.8464  161.3361 C.ar    1  UNL1        0.0536
     22 C         140.6078  137.6958  162.2936 C.ar    1  UNL1        0.0045
     23 C         140.3304  137.9085  163.7523 C.ar    1  UNL1        0.0002
     24 C         140.7883  138.6337  159.8774 C.2     1  UNL1        0.2492
     25 O         142.0192  137.8915  159.4486 O.2     1  UNL1       -0.2699
     26 N         139.8348  139.1632  158.8477 N.am    1  UNL1       -0.2709
     27 C         138.6038  139.9054  159.2766 C.3     1  UNL1        0.1258
     28 C         137.6503  140.4349  158.2467 C.3     1  UNL1        0.1637
     29 O         137.9278  140.2221  156.7880 O.3     1  UNL1       -0.3501
     30 C         139.1587  139.4799  156.3592 C.3     1  UNL1        0.1637
     31 C         140.1122  138.9504  157.3889 C.3     1  UNL1        0.1258
@<TRIPOS>BOND
     1    16    17    1
     2    17    10    1
     3    10    11   ar
     4    11    12   ar
     5    12    13   ar
     6    13     1    1
     7     1     2   ar
     8     2     3   ar
     9     3    18    1
    10    18    19   ar
    11    19    20   ar
    12    20    21   ar
    13    21    24    1
    14    24    25    2
    15    24    26   am
    16    26    27    1
    17    27    28    1
    18    28    29    1
    19    29    30    1
    20    30    31    1
    21    21    22   ar
    22    22    23   ar
    23     3     4   ar
    24     4     5   ar
    25     5     6   ar
    26     6     7    1
    27    13    14   ar
    28    14    15   ar
    29    15    10   ar
    30     6     1   ar
    31    23    18   ar
    32    31    26    1
    33     7     8    1
    34     7     9    1
