@<TRIPOS>MOLECULE
*****
 40 46 0 0 0
SMALL
GASTEIGER

@<TRIPOS>ATOM
      1 C         140.1059  141.8976  161.0556 C.3     1  UNL1        0.1559
      2 N         140.8350  141.2556  159.9127 N.3     1  UNL1       -0.2809
      3 C         141.1219  139.7835  159.9384 C.3     1  UNL1        0.1166
      4 C         140.6797  138.9535  161.1070 C.3     1  UNL1        0.0511
      5 C         139.9507  139.5955  162.2499 C.2     1  UNL1       -0.0037
      6 C         139.6637  141.0676  162.2242 C.2     1  UNL1        0.0784
      7 N         138.9320  141.4192  163.4855 N.2     1  UNL1       -0.2519
      8 C         138.7666  140.1645  164.2907 C.2     1  UNL1        0.0627
      9 C         138.1241  139.9027  165.6205 C.3     1  UNL1        0.0717
     10 C         138.1112  138.5138  166.1868 C.2     1  UNL1       -0.0198
     11 C         138.7408  137.3867  165.4231 C.2     1  UNL1       -0.0042
     12 C         139.3833  137.6485  164.0933 C.2     1  UNL1        0.0006
     13 C         139.3962  139.0374  163.5270 C.2     1  UNL1        0.0111
     14 H         141.7347  141.7296  159.8339 H       1  UNL1        0.1245
     15 C         139.4514  142.9555  161.8938 C.ar    1  UNL1        0.2058
     16 N         138.0759  143.5173  161.6886 N.ar    1  UNL1       -0.0548
     17 O         137.8320  144.5463  162.7524 O.2     1  UNL1       -0.2966
     18 C         139.0568  144.6205  163.6150 C.ar    1  UNL1        0.4165
     19 O         139.2474  145.5200  164.8003 O.3     1  UNL1       -0.4640
     20 N         140.0577  143.6373  163.0844 N.ar    1  UNL1       -0.1557
     21 H         138.5627  146.1048  165.0594 H       1  UNL1        0.2970
     22 C         139.7318  145.3246  157.0560 C.3     1  UNL1        0.1537
     23 N         140.1489  144.6703  158.3398 N.ar    1  UNL1       -0.2476
     24 C         139.6338  143.3660  158.8725 C.ar    1  UNL1        0.0944
     25 C         140.3208  143.0951  160.1782 C.ar    1  UNL1        0.0423
     26 C         141.2603  144.2318  160.4523 C.ar    1  UNL1        0.1194
     27 N         141.1541  145.2053  159.3161 N.ar    1  UNL1       -0.1679
     28 C         141.8510  139.1414  158.7955 C.ar    1  UNL1        0.1319
     29 N         141.7161  137.7142  158.3542 N.ar    1  UNL1       -0.2282
     30 C         142.6247  137.5045  157.1793 C.ar    1  UNL1        0.1171
     31 C         143.3212  138.8021  156.8945 C.ar    1  UNL1        0.0942
     32 N         142.8430  139.8138  157.8934 N.ar    1  UNL1       -0.3385
     33 H         143.1299  140.7540  157.9474 H       1  UNL1        0.1672
     34 C         142.8052  136.2222  156.4220 C.ar    1  UNL1        0.1006
     35 C         142.4479  136.1539  154.9668 C.ar    1  UNL1        0.0230
     36 C         142.6283  134.8718  154.2096 C.ar    1  UNL1        0.0328
     37 C         143.1660  133.6579  154.9076 C.ar    1  UNL1        0.1592
     38 F         143.3465  132.3756  154.1504 F       1  UNL1       -0.2025
     39 C         143.5233  133.7261  156.3629 C.ar    1  UNL1        0.1284
     40 N         143.3429  135.0083  157.1201 N.ar    1  UNL1       -0.2399
@<TRIPOS>BOND
     1    22    23    1
     2    23    24   ar
     3    24    25   ar
     4     1    25    1
     5     1    15    1
     6    15    16   ar
     7    16    17   ar
     8    17    18   ar
     9    18    19    1
    10    18    20   ar
    11     1     2    1
    12     2     3    1
    13     3    28    1
    14    28    29   ar
    15    29    30   ar
    16    30    34    1
    17    34    35   ar
    18    35    36   ar
    19    36    37   ar
    20    37    38    1
    21    37    39   ar
    22    39    40   ar
    23    30    31   ar
    24    31    32   ar
    25     3     4    1
    26     4     5    1
    27     5     6    2
    28     6     7    1
    29     7     8    2
    30     8     9    1
    31     9    10    1
    32    10    11    2
    33    11    12    1
    34    12    13    2
    35    25    26   ar
    36    26    27   ar
    37    27    23   ar
    38     6     1    1
    39    13     8    1
    40    20    15   ar
    41    32    28   ar
    42    13     5    1
    43    40    34   ar
    44    19    21    1
    45     2    14    1
    46    32    33    1
@<TRIPOS>MOLECULE
*****
 40 46 0 0 0
SMALL
GASTEIGER

@<TRIPOS>ATOM
      1 C         142.0662  140.8505  164.4343 C.3     1  UNL1        0.1559
      2 N         141.7475  141.8664  163.3777 N.3     1  UNL1       -0.2809
      3 C         141.0819  143.1568  163.7545 C.3     1  UNL1        0.1166
      4 C         140.7350  143.4312  165.1878 C.3     1  UNL1        0.0511
      5 C         141.0537  142.4153  166.2443 C.2     1  UNL1       -0.0037
      6 C         141.7193  141.1250  165.8676 C.2     1  UNL1        0.0784
      7 N         141.9095  140.3191  167.1184 N.2     1  UNL1       -0.2519
      8 C         141.3614  141.1114  168.2681 C.2     1  UNL1        0.0627
      9 C         141.2756  140.8206  169.7371 C.3     1  UNL1        0.0717
     10 C         140.6610  141.8252  170.6659 C.2     1  UNL1       -0.0198
     11 C         140.1320  143.1208  170.1257 C.2     1  UNL1       -0.0042
     12 C         140.2178  143.4117  168.6567 C.2     1  UNL1        0.0006
     13 C         140.8325  142.4070  167.7279 C.2     1  UNL1        0.0111
     14 H         141.1374  141.4068  162.7018 H       1  UNL1        0.1245
     15 C         142.5656  139.5868  165.0698 C.ar    1  UNL1        0.2058
     16 N         141.8421  138.2736  165.1082 N.ar    1  UNL1       -0.0548
     17 O         142.7056  137.2898  165.8407 O.2     1  UNL1       -0.2966
     18 C         143.9629  137.9951  166.2549 C.ar    1  UNL1        0.4165
     19 O         145.1060  137.3874  167.0126 O.3     1  UNL1       -0.4640
     20 N         143.8764  139.4148  165.7785 N.ar    1  UNL1       -0.1557
     21 H         145.0716  136.4871  167.2700 H       1  UNL1        0.2970
     22 C         142.2860  138.0340  159.9734 C.3     1  UNL1        0.1537
     23 N         142.6877  138.8426  161.1713 N.ar    1  UNL1       -0.2476
     24 C         141.7602  139.3993  162.2105 C.ar    1  UNL1        0.0944
     25 C         142.5866  140.1372  163.2217 C.ar    1  UNL1        0.0423
     26 C         144.0248  140.0365  162.8075 C.ar    1  UNL1        0.1194
     27 N         144.0872  139.2364  161.5402 N.ar    1  UNL1       -0.1679
     28 C         140.7632  144.1727  162.6979 C.ar    1  UNL1        0.1319
     29 N         141.0893  144.0587  161.2382 N.ar    1  UNL1       -0.2282
     30 C         140.5901  145.2965  160.5537 C.ar    1  UNL1        0.1171
     31 C         139.9555  146.1755  161.5903 C.ar    1  UNL1        0.0942
     32 N         140.0625  145.4810  162.9155 N.ar    1  UNL1       -0.3385
     33 H         139.7310  145.8236  163.7768 H       1  UNL1        0.1672
     34 C         140.7053  145.6017  159.0895 C.ar    1  UNL1        0.1006
     35 C         141.9408  145.2070  158.3361 C.ar    1  UNL1        0.0230
     36 C         142.0561  145.5121  156.8720 C.ar    1  UNL1        0.0328
     37 C         140.9358  146.2120  156.1614 C.ar    1  UNL1        0.1592
     38 F         141.0510  146.5172  154.6972 F       1  UNL1       -0.2025
     39 C         139.7002  146.6067  156.9148 C.ar    1  UNL1        0.1284
     40 N         139.5850  146.3016  158.3789 N.ar    1  UNL1       -0.2399
@<TRIPOS>BOND
     1    22    23    1
     2    23    24   ar
     3    24    25   ar
     4     1    25    1
     5     1    15    1
     6    15    16   ar
     7    16    17   ar
     8    17    18   ar
     9    18    19    1
    10    18    20   ar
    11     1     2    1
    12     2     3    1
    13     3    28    1
    14    28    29   ar
    15    29    30   ar
    16    30    34    1
    17    34    35   ar
    18    35    36   ar
    19    36    37   ar
    20    37    38    1
    21    37    39   ar
    22    39    40   ar
    23    30    31   ar
    24    31    32   ar
    25     3     4    1
    26     4     5    1
    27     5     6    2
    28     6     7    1
    29     7     8    2
    30     8     9    1
    31     9    10    1
    32    10    11    2
    33    11    12    1
    34    12    13    2
    35    25    26   ar
    36    26    27   ar
    37    27    23   ar
    38     6     1    1
    39    13     8    1
    40    20    15   ar
    41    32    28   ar
    42    13     5    1
    43    40    34   ar
    44    19    21    1
    45     2    14    1
    46    32    33    1
@<TRIPOS>MOLECULE
*****
 40 46 0 0 0
SMALL
GASTEIGER

@<TRIPOS>ATOM
      1 C         141.5976  142.1127  161.4984 C.3     1  UNL1        0.1559
      2 N         141.7362  141.3344  160.2237 N.3     1  UNL1       -0.2809
      3 C         142.1955  139.9070  160.2626 C.3     1  UNL1        0.1166
      4 C         142.5161  139.2578  161.5764 C.3     1  UNL1        0.0511
      5 C         142.3775  140.0361  162.8511 C.2     1  UNL1       -0.0037
      6 C         141.9182  141.4636  162.8121 C.2     1  UNL1        0.0784
      7 N         141.8762  141.9756  164.2214 N.2     1  UNL1       -0.2519
      8 C         142.3095  140.8646  165.1314 C.2     1  UNL1        0.0627
      9 C         142.4620  140.7896  166.6217 C.3     1  UNL1        0.0717
     10 C         142.9243  139.5159  167.2651 C.2     1  UNL1       -0.0198
     11 C         143.2341  138.3173  166.4182 C.2     1  UNL1       -0.0042
     12 C         143.0816  138.3923  164.9279 C.2     1  UNL1        0.0006
     13 C         142.6193  139.6660  164.2845 C.2     1  UNL1        0.0111
     14 H         142.4010  141.8418  159.6397 H       1  UNL1        0.1245
     15 C         141.3133  143.2541  162.4293 C.ar    1  UNL1        0.2058
     16 N         142.2533  144.3740  162.7639 N.ar    1  UNL1       -0.0548
     17 O         141.5600  145.2880  163.7304 O.2     1  UNL1       -0.2966
     18 C         140.1915  144.7329  163.9929 C.ar    1  UNL1        0.4165
     19 O         139.1570  145.3300  164.9004 O.3     1  UNL1       -0.4640
     20 N         140.0390  143.4759  163.1888 N.ar    1  UNL1       -0.1557
     21 H         139.3425  146.1224  165.3648 H       1  UNL1        0.2970
     22 C         141.7566  145.8676  157.7895 C.3     1  UNL1        0.1537
     23 N         141.2513  144.8842  158.8032 N.ar    1  UNL1       -0.2476
     24 C         142.0942  143.9621  159.6335 C.ar    1  UNL1        0.0944
     25 C         141.1782  143.1582  160.5080 C.ar    1  UNL1        0.0423
     26 C         139.7692  143.5834  160.2181 C.ar    1  UNL1        0.1194
     27 N         139.8144  144.6502  159.1645 N.ar    1  UNL1       -0.1679
     28 C         142.3341  139.1286  158.9878 C.ar    1  UNL1        0.1319
     29 N         142.6624  137.6692  158.8773 N.ar    1  UNL1       -0.2282
     30 C         142.7000  137.3116  157.4210 C.ar    1  UNL1        0.1171
     31 C         142.3950  138.5500  156.6316 C.ar    1  UNL1        0.0942
     32 N         142.1689  139.6730  157.6000 N.ar    1  UNL1       -0.3385
     33 H         141.9503  140.6039  157.3658 H       1  UNL1        0.1672
     34 C         142.9915  135.9539  156.8538 C.ar    1  UNL1        0.1006
     35 C         142.8437  135.7087  155.3813 C.ar    1  UNL1        0.0230
     36 C         143.1352  134.3511  154.8141 C.ar    1  UNL1        0.0328
     37 C         143.5744  133.2386  155.7192 C.ar    1  UNL1        0.1592
     38 F         143.8659  131.8809  155.1520 F       1  UNL1       -0.2025
     39 C         143.7222  133.4837  157.1917 C.ar    1  UNL1        0.1284
     40 N         143.4307  134.8413  157.7589 N.ar    1  UNL1       -0.2399
@<TRIPOS>BOND
     1    22    23    1
     2    23    24   ar
     3    24    25   ar
     4     1    25    1
     5     1    15    1
     6    15    16   ar
     7    16    17   ar
     8    17    18   ar
     9    18    19    1
    10    18    20   ar
    11     1     2    1
    12     2     3    1
    13     3    28    1
    14    28    29   ar
    15    29    30   ar
    16    30    34    1
    17    34    35   ar
    18    35    36   ar
    19    36    37   ar
    20    37    38    1
    21    37    39   ar
    22    39    40   ar
    23    30    31   ar
    24    31    32   ar
    25     3     4    1
    26     4     5    1
    27     5     6    2
    28     6     7    1
    29     7     8    2
    30     8     9    1
    31     9    10    1
    32    10    11    2
    33    11    12    1
    34    12    13    2
    35    25    26   ar
    36    26    27   ar
    37    27    23   ar
    38     6     1    1
    39    13     8    1
    40    20    15   ar
    41    32    28   ar
    42    13     5    1
    43    40    34   ar
    44    19    21    1
    45     2    14    1
    46    32    33    1
@<TRIPOS>MOLECULE
*****
 40 46 0 0 0
SMALL
GASTEIGER

@<TRIPOS>ATOM
      1 C         142.5540  143.6840  158.9181 C.3     1  UNL1        0.1559
      2 N         143.4121  143.2923  157.7519 N.3     1  UNL1       -0.2809
      3 C         144.7126  142.5813  157.9829 C.3     1  UNL1        0.1166
      4 C         145.1548  142.2620  159.3803 C.3     1  UNL1        0.0511
      5 C         144.2966  142.6537  160.5465 C.2     1  UNL1       -0.0037
      6 C         142.9962  143.3647  160.3154 C.2     1  UNL1        0.0784
      7 N         142.3660  143.6241  161.6516 N.2     1  UNL1       -0.2519
      8 C         143.2769  143.0734  162.7085 C.2     1  UNL1        0.0627
      9 C         143.1740  143.0406  164.2046 C.3     1  UNL1        0.0717
     10 C         144.2643  142.4081  165.0177 C.2     1  UNL1       -0.0198
     11 C         145.4576  141.8083  164.3346 C.2     1  UNL1       -0.0042
     12 C         145.5605  141.8411  162.8386 C.2     1  UNL1        0.0006
     13 C         144.4701  142.4737  162.0255 C.2     1  UNL1        0.0111
     14 H         143.6316  144.1506  157.2464 H       1  UNL1        0.1245
     15 C         141.4034  144.2555  159.6925 C.ar    1  UNL1        0.2058
     16 N         140.0896  143.5785  159.9480 N.ar    1  UNL1       -0.0548
     17 O         139.2390  144.5090  160.7609 O.2     1  UNL1       -0.2966
     18 C         140.0272  145.7611  161.0077 C.ar    1  UNL1        0.4165
     19 O         139.5597  146.9595  161.7793 O.3     1  UNL1       -0.4640
     20 N         141.3649  145.6044  160.3474 N.ar    1  UNL1       -0.1557
     21 H         138.7029  146.9675  162.1585 H       1  UNL1        0.2970
     22 C         140.3522  146.9113  155.3660 C.3     1  UNL1        0.1537
     23 N         140.7001  145.6852  156.1570 N.ar    1  UNL1       -0.2476
     24 C         141.6759  145.6171  157.2942 C.ar    1  UNL1        0.0944
     25 C         141.7122  144.2018  157.7898 C.ar    1  UNL1        0.0423
     26 C         140.7587  143.3952  156.9589 C.ar    1  UNL1        0.1194
     27 N         140.1332  144.3120  155.9498 N.ar    1  UNL1       -0.1679
     28 C         145.5708  142.1896  156.8167 C.ar    1  UNL1        0.1319
     29 N         146.9411  142.7189  156.5134 N.ar    1  UNL1       -0.2282
     30 C         147.4266  142.0563  155.2583 C.ar    1  UNL1        0.1171
     31 C         146.3563  141.1176  154.7859 C.ar    1  UNL1        0.0942
     32 N         145.2093  141.2000  155.7490 N.ar    1  UNL1       -0.3385
     33 H         144.3671  140.6935  155.6907 H       1  UNL1        0.1672
     34 C         148.7501  142.2912  154.5925 C.ar    1  UNL1        0.1006
     35 C         148.8443  143.2186  153.4172 C.ar    1  UNL1        0.0230
     36 C         150.1677  143.4535  152.7514 C.ar    1  UNL1        0.0328
     37 C         151.3969  142.7611  153.2609 C.ar    1  UNL1        0.1592
     38 F         152.7204  142.9961  152.5951 F       1  UNL1       -0.2025
     39 C         151.3028  141.8338  154.4361 C.ar    1  UNL1        0.1284
     40 N         149.9793  141.5989  155.1019 N.ar    1  UNL1       -0.2399
@<TRIPOS>BOND
     1    22    23    1
     2    23    24   ar
     3    24    25   ar
     4     1    25    1
     5     1    15    1
     6    15    16   ar
     7    16    17   ar
     8    17    18   ar
     9    18    19    1
    10    18    20   ar
    11     1     2    1
    12     2     3    1
    13     3    28    1
    14    28    29   ar
    15    29    30   ar
    16    30    34    1
    17    34    35   ar
    18    35    36   ar
    19    36    37   ar
    20    37    38    1
    21    37    39   ar
    22    39    40   ar
    23    30    31   ar
    24    31    32   ar
    25     3     4    1
    26     4     5    1
    27     5     6    2
    28     6     7    1
    29     7     8    2
    30     8     9    1
    31     9    10    1
    32    10    11    2
    33    11    12    1
    34    12    13    2
    35    25    26   ar
    36    26    27   ar
    37    27    23   ar
    38     6     1    1
    39    13     8    1
    40    20    15   ar
    41    32    28   ar
    42    13     5    1
    43    40    34   ar
    44    19    21    1
    45     2    14    1
    46    32    33    1
@<TRIPOS>MOLECULE
*****
 40 46 0 0 0
SMALL
GASTEIGER

@<TRIPOS>ATOM
      1 C         140.7313  141.1001  159.8334 C.3     1  UNL1        0.1559
      2 N         141.1270  140.0976  158.7902 N.3     1  UNL1       -0.2809
      3 C         142.4852  139.4628  158.8371 C.3     1  UNL1        0.1166
      4 C         143.4478  139.8307  159.9271 C.3     1  UNL1        0.0511
      5 C         143.0521  140.8332  160.9703 C.2     1  UNL1       -0.0037
      6 C         141.6939  141.4679  160.9235 C.2     1  UNL1        0.0784
      7 N         141.5855  142.4165  162.0804 N.2     1  UNL1       -0.2519
      8 C         142.8767  142.3681  162.8422 C.2     1  UNL1        0.0627
      9 C         143.3442  143.0886  164.0719 C.3     1  UNL1        0.0717
     10 C         144.7181  142.8305  164.6156 C.2     1  UNL1       -0.0198
     11 C         145.6246  141.8519  163.9295 C.2     1  UNL1       -0.0042
     12 C         145.1571  141.1314  162.6998 C.2     1  UNL1        0.0006
     13 C         143.7832  141.3895  162.1561 C.2     1  UNL1        0.0111
     14 H         141.0521  140.5667  157.8876 H       1  UNL1        0.1245
     15 C         139.9012  142.0950  160.5893 C.ar    1  UNL1        0.2058
     16 N         139.8643  143.5752  160.3502 N.ar    1  UNL1       -0.0548
     17 O         138.9025  144.1793  161.3302 O.2     1  UNL1       -0.2966
     18 C         138.3451  143.0722  162.1749 C.ar    1  UNL1        0.4165
     19 O         137.3459  143.2263  163.2830 O.3     1  UNL1       -0.4640
     20 N         138.9624  141.7840  161.7171 N.ar    1  UNL1       -0.1557
     21 H         137.0138  144.0752  163.4998 H       1  UNL1        0.2970
     22 C         137.0469  142.3573  156.2661 C.3     1  UNL1        0.1537
     23 N         137.7869  141.6556  157.3662 N.ar    1  UNL1       -0.2476
     24 C         139.1196  142.0553  157.9268 C.ar    1  UNL1        0.0944
     25 C         139.4804  141.0778  159.0059 C.ar    1  UNL1        0.0423
     26 C         138.3707  140.0742  159.1123 C.ar    1  UNL1        0.1194
     27 N         137.3240  140.4313  158.0989 N.ar    1  UNL1       -0.1679
     28 C         142.8810  138.4602  157.7938 C.ar    1  UNL1        0.1319
     29 N         142.5205  137.0042  157.7888 N.ar    1  UNL1       -0.2282
     30 C         143.1233  136.3818  156.5644 C.ar    1  UNL1        0.1171
     31 C         143.8564  137.4531  155.8128 C.ar    1  UNL1        0.0942
     32 N         143.7066  138.7377  156.5726 N.ar    1  UNL1       -0.3385
     33 H         144.0839  139.6097  156.3151 H       1  UNL1        0.1672
     34 C         143.0126  134.9409  156.1622 C.ar    1  UNL1        0.1006
     35 C         142.8266  134.5772  154.7189 C.ar    1  UNL1        0.0230
     36 C         142.7159  133.1364  154.3167 C.ar    1  UNL1        0.0328
     37 C         142.7910  132.0593  155.3578 C.ar    1  UNL1        0.1592
     38 F         142.6803  130.6184  154.9557 F       1  UNL1       -0.2025
     39 C         142.9770  132.4229  156.8012 C.ar    1  UNL1        0.1284
     40 N         143.0877  133.8637  157.2033 N.ar    1  UNL1       -0.2399
@<TRIPOS>BOND
     1    22    23    1
     2    23    24   ar
     3    24    25   ar
     4     1    25    1
     5     1    15    1
     6    15    16   ar
     7    16    17   ar
     8    17    18   ar
     9    18    19    1
    10    18    20   ar
    11     1     2    1
    12     2     3    1
    13     3    28    1
    14    28    29   ar
    15    29    30   ar
    16    30    34    1
    17    34    35   ar
    18    35    36   ar
    19    36    37   ar
    20    37    38    1
    21    37    39   ar
    22    39    40   ar
    23    30    31   ar
    24    31    32   ar
    25     3     4    1
    26     4     5    1
    27     5     6    2
    28     6     7    1
    29     7     8    2
    30     8     9    1
    31     9    10    1
    32    10    11    2
    33    11    12    1
    34    12    13    2
    35    25    26   ar
    36    26    27   ar
    37    27    23   ar
    38     6     1    1
    39    13     8    1
    40    20    15   ar
    41    32    28   ar
    42    13     5    1
    43    40    34   ar
    44    19    21    1
    45     2    14    1
    46    32    33    1
@<TRIPOS>MOLECULE
*****
 40 46 0 0 0
SMALL
GASTEIGER

@<TRIPOS>ATOM
      1 C         139.7661  141.7978  160.1274 C.3     1  UNL1        0.1559
      2 N         139.9000  140.9235  158.9159 N.3     1  UNL1       -0.2809
      3 C         139.7837  139.4340  159.0494 C.3     1  UNL1        0.1166
      4 C         139.5335  138.8188  160.3944 C.3     1  UNL1        0.0511
      5 C         139.3995  139.6930  161.6058 C.2     1  UNL1       -0.0037
      6 C         139.5158  141.1825  161.4723 C.2     1  UNL1        0.0784
      7 N         139.3408  141.7850  162.8348 N.2     1  UNL1       -0.2519
      8 C         139.1164  140.6679  163.8104 C.2     1  UNL1        0.0627
      9 C         138.8836  140.6610  165.2922 C.3     1  UNL1        0.0717
     10 C         138.6872  139.3611  166.0144 C.2     1  UNL1       -0.0198
     11 C         138.7235  138.0681  165.2548 C.2     1  UNL1       -0.0042
     12 C         138.9562  138.0751  163.7730 C.2     1  UNL1        0.0006
     13 C         139.1526  139.3750  163.0508 C.2     1  UNL1        0.0111
     14 H         140.8194  141.1125  158.5166 H       1  UNL1        0.1245
     15 C         139.7126  143.0350  160.9740 C.ar    1  UNL1        0.2058
     16 N         138.4936  143.8660  161.2446 N.ar    1  UNL1       -0.0548
     17 O         138.8965  145.0029  162.1364 O.2     1  UNL1       -0.2966
     18 C         140.3643  144.8744  162.4169 C.ar    1  UNL1        0.4165
     19 O         141.1840  145.7998  163.2666 O.3     1  UNL1       -0.4640
     20 N         140.8688  143.6581  161.6984 N.ar    1  UNL1       -0.1557
     21 H         140.7805  146.5384  163.6784 H       1  UNL1        0.2970
     22 C         142.0866  145.4560  157.1085 C.3     1  UNL1        0.1537
     23 N         141.0643  144.5242  157.6888 N.ar    1  UNL1       -0.2476
     24 C         141.2830  143.5758  158.8303 C.ar    1  UNL1        0.0944
     25 C         139.9977  142.8427  159.0765 C.ar    1  UNL1        0.0423
     26 C         138.9847  143.3379  158.0872 C.ar    1  UNL1        0.1194
     27 N         139.6440  144.3772  157.2296 N.ar    1  UNL1       -0.1679
     28 C         139.9176  138.5597  157.8379 C.ar    1  UNL1        0.1319
     29 N         140.8670  137.4089  157.6818 N.ar    1  UNL1       -0.2282
     30 C         140.6619  136.8206  156.3173 C.ar    1  UNL1        0.1171
     31 C         139.5857  137.6078  155.6301 C.ar    1  UNL1        0.0942
     32 N         139.1258  138.6826  156.5699 N.ar    1  UNL1       -0.3385
     33 H         138.4268  139.3513  156.3867 H       1  UNL1        0.1672
     34 C         141.4028  135.6505  155.7411 C.ar    1  UNL1        0.1006
     35 C         142.5785  135.0734  156.4724 C.ar    1  UNL1        0.0230
     36 C         143.3194  133.9034  155.8963 C.ar    1  UNL1        0.0328
     37 C         142.8847  133.3104  154.5889 C.ar    1  UNL1        0.1592
     38 F         143.6257  132.1403  154.0127 F       1  UNL1       -0.2025
     39 C         141.7091  133.8875  153.8576 C.ar    1  UNL1        0.1284
     40 N         140.9681  135.0576  154.4337 N.ar    1  UNL1       -0.2399
@<TRIPOS>BOND
     1    22    23    1
     2    23    24   ar
     3    24    25   ar
     4     1    25    1
     5     1    15    1
     6    15    16   ar
     7    16    17   ar
     8    17    18   ar
     9    18    19    1
    10    18    20   ar
    11     1     2    1
    12     2     3    1
    13     3    28    1
    14    28    29   ar
    15    29    30   ar
    16    30    34    1
    17    34    35   ar
    18    35    36   ar
    19    36    37   ar
    20    37    38    1
    21    37    39   ar
    22    39    40   ar
    23    30    31   ar
    24    31    32   ar
    25     3     4    1
    26     4     5    1
    27     5     6    2
    28     6     7    1
    29     7     8    2
    30     8     9    1
    31     9    10    1
    32    10    11    2
    33    11    12    1
    34    12    13    2
    35    25    26   ar
    36    26    27   ar
    37    27    23   ar
    38     6     1    1
    39    13     8    1
    40    20    15   ar
    41    32    28   ar
    42    13     5    1
    43    40    34   ar
    44    19    21    1
    45     2    14    1
    46    32    33    1
@<TRIPOS>MOLECULE
*****
 40 46 0 0 0
SMALL
GASTEIGER

@<TRIPOS>ATOM
      1 C         142.0272  142.1513  158.6233 C.3     1  UNL1        0.1559
      2 N         142.1457  140.9345  157.7542 N.3     1  UNL1       -0.2809
      3 C         142.9466  139.7550  158.2205 C.3     1  UNL1        0.1166
      4 C         143.6289  139.7924  159.5558 C.3     1  UNL1        0.0511
      5 C         143.5104  141.0092  160.4248 C.2     1  UNL1       -0.0037
      6 C         142.7095  142.1887  159.9586 C.2     1  UNL1        0.0784
      7 N         142.7716  143.2418  161.0249 N.2     1  UNL1       -0.2519
      8 C         143.6109  142.7132  162.1502 C.2     1  UNL1        0.0627
      9 C         144.0183  143.3100  163.4646 C.3     1  UNL1        0.0717
     10 C         144.8823  142.5270  164.4082 C.2     1  UNL1       -0.0198
     11 C         145.3389  141.1471  164.0373 C.2     1  UNL1       -0.0042
     12 C         144.9315  140.5503  162.7229 C.2     1  UNL1        0.0006
     13 C         144.0675  141.3333  161.7793 C.2     1  UNL1        0.0111
     14 H         142.5584  141.2410  156.8732 H       1  UNL1        0.1245
     15 C         141.6229  143.5204  159.0843 C.ar    1  UNL1        0.2058
     16 N         142.3256  144.8043  158.7565 N.ar    1  UNL1       -0.0548
     17 O         141.5819  145.9232  159.4236 O.2     1  UNL1       -0.2966
     18 C         140.4196  145.3306  160.1637 C.ar    1  UNL1        0.4165
     19 O         139.4093  146.0899  160.9717 O.3     1  UNL1       -0.4640
     20 N         140.4449  143.8456  159.9540 N.ar    1  UNL1       -0.1557
     21 H         139.4739  147.0217  161.0468 H       1  UNL1        0.2970
     22 C         137.9086  143.2842  155.5193 C.3     1  UNL1        0.1537
     23 N         139.3114  143.1102  156.0213 N.ar    1  UNL1       -0.2476
     24 C         139.7062  142.5986  157.3750 C.ar    1  UNL1        0.0944
     25 C         141.2044  142.5895  157.4481 C.ar    1  UNL1        0.0423
     26 C         141.7355  143.0954  156.1396 C.ar    1  UNL1        0.1194
     27 N         140.5654  143.4173  155.2578 N.ar    1  UNL1       -0.1679
     28 C         143.0651  138.5381  157.3514 C.ar    1  UNL1        0.1319
     29 N         142.8867  137.1167  157.7958 N.ar    1  UNL1       -0.2282
     30 C         143.0942  136.2291  156.6045 C.ar    1  UNL1        0.1171
     31 C         143.4008  137.1021  155.4238 C.ar    1  UNL1        0.0942
     32 N         143.3829  138.5292  155.8855 N.ar    1  UNL1       -0.3385
     33 H         143.5502  139.3209  155.3248 H       1  UNL1        0.1672
     34 C         143.0099  134.7315  156.5954 C.ar    1  UNL1        0.1006
     35 C         141.9910  134.0429  155.7364 C.ar    1  UNL1        0.0230
     36 C         141.9067  132.5453  155.7273 C.ar    1  UNL1        0.0328
     37 C         142.8411  131.7363  156.5772 C.ar    1  UNL1        0.1592
     38 F         142.7568  130.2387  156.5681 F       1  UNL1       -0.2025
     39 C         143.8600  132.4249  157.4361 C.ar    1  UNL1        0.1284
     40 N         143.9443  133.9225  157.4452 N.ar    1  UNL1       -0.2399
@<TRIPOS>BOND
     1    22    23    1
     2    23    24   ar
     3    24    25   ar
     4     1    25    1
     5     1    15    1
     6    15    16   ar
     7    16    17   ar
     8    17    18   ar
     9    18    19    1
    10    18    20   ar
    11     1     2    1
    12     2     3    1
    13     3    28    1
    14    28    29   ar
    15    29    30   ar
    16    30    34    1
    17    34    35   ar
    18    35    36   ar
    19    36    37   ar
    20    37    38    1
    21    37    39   ar
    22    39    40   ar
    23    30    31   ar
    24    31    32   ar
    25     3     4    1
    26     4     5    1
    27     5     6    2
    28     6     7    1
    29     7     8    2
    30     8     9    1
    31     9    10    1
    32    10    11    2
    33    11    12    1
    34    12    13    2
    35    25    26   ar
    36    26    27   ar
    37    27    23   ar
    38     6     1    1
    39    13     8    1
    40    20    15   ar
    41    32    28   ar
    42    13     5    1
    43    40    34   ar
    44    19    21    1
    45     2    14    1
    46    32    33    1
@<TRIPOS>MOLECULE
*****
 40 46 0 0 0
SMALL
GASTEIGER

@<TRIPOS>ATOM
      1 C         140.7570  142.1958  160.1501 C.3     1  UNL1        0.1559
      2 N         141.1317  141.2165  159.0775 N.3     1  UNL1       -0.2809
      3 C         141.9796  140.0253  159.4124 C.3     1  UNL1        0.1166
      4 C         142.4527  139.8134  160.8200 C.3     1  UNL1        0.0511
      5 C         142.0780  140.7927  161.8926 C.2     1  UNL1       -0.0037
      6 C         141.2301  141.9839  161.5577 C.2     1  UNL1        0.0784
      7 N         141.0222  142.7733  162.8160 N.2     1  UNL1       -0.2519
      8 C         141.7415  142.0701  163.9287 C.2     1  UNL1        0.0627
      9 C         141.8866  142.3863  165.3878 C.3     1  UNL1        0.0717
     10 C         142.6843  141.4783  166.2762 C.2     1  UNL1       -0.0198
     11 C         143.3368  140.2542  165.7055 C.2     1  UNL1       -0.0042
     12 C         143.1917  139.9380  164.2464 C.2     1  UNL1        0.0006
     13 C         142.3941  140.8460  163.3580 C.2     1  UNL1        0.0111
     14 H         141.6322  141.7420  158.3608 H       1  UNL1        0.1245
     15 C         140.1440  143.3931  160.8140 C.ar    1  UNL1        0.2058
     16 N         138.7355  143.4964  161.3192 N.ar    1  UNL1       -0.0548
     17 O         138.5530  144.8645  161.9067 O.2     1  UNL1       -0.2966
     18 C         139.8487  145.6066  161.7645 C.ar    1  UNL1        0.4165
     19 O         140.1145  147.0115  162.2181 O.3     1  UNL1       -0.4640
     20 N         140.8321  144.6972  161.0892 N.ar    1  UNL1       -0.1557
     21 H         139.4355  147.5062  162.6330 H       1  UNL1        0.2970
     22 C         139.6928  145.3550  156.0552 C.3     1  UNL1        0.1537
     23 N         139.5818  144.2756  157.0909 N.ar    1  UNL1       -0.2476
     24 C         140.5845  143.9791  158.1664 C.ar    1  UNL1        0.0944
     25 C         140.0709  142.8234  158.9731 C.ar    1  UNL1        0.0423
     26 C         138.7509  142.4057  158.3961 C.ar    1  UNL1        0.1194
     27 N         138.4486  143.3032  157.2328 N.ar    1  UNL1       -0.1679
     28 C         142.3544  139.0459  158.3398 C.ar    1  UNL1        0.1319
     29 N         142.0200  137.5838  158.3251 N.ar    1  UNL1       -0.2282
     30 C         142.5883  136.9910  157.0698 C.ar    1  UNL1        0.1171
     31 C         143.2738  138.0868  156.3088 C.ar    1  UNL1        0.0942
     32 N         143.1293  139.3568  157.0937 N.ar    1  UNL1       -0.3385
     33 H         143.4812  140.2395  156.8362 H       1  UNL1        0.1672
     34 C         142.4885  135.5545  156.6494 C.ar    1  UNL1        0.1006
     35 C         143.3748  134.5241  157.2839 C.ar    1  UNL1        0.0230
     36 C         143.2750  133.0876  156.8636 C.ar    1  UNL1        0.0328
     37 C         142.2889  132.6817  155.8088 C.ar    1  UNL1        0.1592
     38 F         142.1891  131.2452  155.3884 F       1  UNL1       -0.2025
     39 C         141.4026  133.7121  155.1743 C.ar    1  UNL1        0.1284
     40 N         141.5024  135.1485  155.5946 N.ar    1  UNL1       -0.2399
@<TRIPOS>BOND
     1    22    23    1
     2    23    24   ar
     3    24    25   ar
     4     1    25    1
     5     1    15    1
     6    15    16   ar
     7    16    17   ar
     8    17    18   ar
     9    18    19    1
    10    18    20   ar
    11     1     2    1
    12     2     3    1
    13     3    28    1
    14    28    29   ar
    15    29    30   ar
    16    30    34    1
    17    34    35   ar
    18    35    36   ar
    19    36    37   ar
    20    37    38    1
    21    37    39   ar
    22    39    40   ar
    23    30    31   ar
    24    31    32   ar
    25     3     4    1
    26     4     5    1
    27     5     6    2
    28     6     7    1
    29     7     8    2
    30     8     9    1
    31     9    10    1
    32    10    11    2
    33    11    12    1
    34    12    13    2
    35    25    26   ar
    36    26    27   ar
    37    27    23   ar
    38     6     1    1
    39    13     8    1
    40    20    15   ar
    41    32    28   ar
    42    13     5    1
    43    40    34   ar
    44    19    21    1
    45     2    14    1
    46    32    33    1
@<TRIPOS>MOLECULE
*****
 40 46 0 0 0
SMALL
GASTEIGER

@<TRIPOS>ATOM
      1 C         141.0792  140.2333  159.6665 C.3     1  UNL1        0.1559
      2 N         141.6443  138.9869  159.0525 N.3     1  UNL1       -0.2809
      3 C         142.3359  139.0529  157.7231 C.3     1  UNL1        0.1166
      4 C         142.4625  140.3652  157.0078 C.3     1  UNL1        0.0511
      5 C         141.8974  141.6117  157.6218 C.2     1  UNL1       -0.0037
      6 C         141.2057  141.5457  158.9512 C.2     1  UNL1        0.0784
      7 N         140.7512  142.9303  159.3064 N.2     1  UNL1       -0.2519
      8 C         141.1620  143.8521  158.1965 C.2     1  UNL1        0.0627
      9 C         140.9825  145.3281  157.9995 C.3     1  UNL1        0.0717
     10 C         141.5114  145.9892  156.7613 C.2     1  UNL1       -0.0198
     11 C         142.2198  145.1742  155.7201 C.2     1  UNL1       -0.0042
     12 C         142.3993  143.6981  155.9172 C.2     1  UNL1        0.0006
     13 C         141.8704  143.0371  157.1554 C.2     1  UNL1        0.0111
     14 H         140.8691  138.3321  158.9489 H       1  UNL1        0.1245
     15 C         140.3865  141.1325  160.6473 C.ar    1  UNL1        0.2058
     16 N         141.0374  141.8684  161.7806 N.ar    1  UNL1       -0.0548
     17 O         139.9745  142.6443  162.5006 O.2     1  UNL1       -0.2966
     18 C         138.6668  142.3878  161.8122 C.ar    1  UNL1        0.4165
     19 O         137.3377  142.9644  162.2009 O.3     1  UNL1       -0.4640
     20 N         138.9214  141.4534  160.6667 N.ar    1  UNL1       -0.1557
     21 H         137.2747  143.5427  162.9355 H       1  UNL1        0.2970
     22 C         141.2481  137.1968  163.9830 C.3     1  UNL1        0.1537
     23 N         140.7896  137.8375  162.7065 N.ar    1  UNL1       -0.2476
     24 C         141.5361  138.8772  161.9242 C.ar    1  UNL1        0.0944
     25 C         140.7120  139.2332  160.7224 C.ar    1  UNL1        0.0423
     26 C         139.4564  138.4135  160.7620 C.ar    1  UNL1        0.1194
     27 N         139.5044  137.5509  161.9882 N.ar    1  UNL1       -0.1679
     28 C         142.9011  137.8064  157.1090 C.ar    1  UNL1        0.1319
     29 N         142.6164  136.4004  157.5473 N.ar    1  UNL1       -0.2282
     30 C         143.3895  135.4722  156.6580 C.ar    1  UNL1        0.1171
     31 C         144.1519  136.3045  155.6701 C.ar    1  UNL1        0.0942
     32 N         143.8501  137.7472  155.9489 N.ar    1  UNL1       -0.3385
     33 H         144.2114  138.5195  155.4568 H       1  UNL1        0.1672
     34 C         143.3985  133.9745  156.7419 C.ar    1  UNL1        0.1006
     35 C         142.3367  133.1778  156.0434 C.ar    1  UNL1        0.0230
     36 C         142.3457  131.6802  156.1273 C.ar    1  UNL1        0.0328
     37 C         143.4164  130.9793  156.9096 C.ar    1  UNL1        0.1592
     38 F         143.4255  129.4817  156.9935 F       1  UNL1       -0.2025
     39 C         144.4783  131.7760  157.6081 C.ar    1  UNL1        0.1284
     40 N         144.4693  133.2736  157.5242 N.ar    1  UNL1       -0.2399
@<TRIPOS>BOND
     1    22    23    1
     2    23    24   ar
     3    24    25   ar
     4     1    25    1
     5     1    15    1
     6    15    16   ar
     7    16    17   ar
     8    17    18   ar
     9    18    19    1
    10    18    20   ar
    11     1     2    1
    12     2     3    1
    13     3    28    1
    14    28    29   ar
    15    29    30   ar
    16    30    34    1
    17    34    35   ar
    18    35    36   ar
    19    36    37   ar
    20    37    38    1
    21    37    39   ar
    22    39    40   ar
    23    30    31   ar
    24    31    32   ar
    25     3     4    1
    26     4     5    1
    27     5     6    2
    28     6     7    1
    29     7     8    2
    30     8     9    1
    31     9    10    1
    32    10    11    2
    33    11    12    1
    34    12    13    2
    35    25    26   ar
    36    26    27   ar
    37    27    23   ar
    38     6     1    1
    39    13     8    1
    40    20    15   ar
    41    32    28   ar
    42    13     5    1
    43    40    34   ar
    44    19    21    1
    45     2    14    1
    46    32    33    1
