@<TRIPOS>MOLECULE
*****
 28 31 0 0 0
SMALL
GASTEIGER

@<TRIPOS>ATOM
      1 C         143.2815  140.9626  163.3242 C.2     1  UNL1        0.1571
      2 N         144.0784  139.9496  162.5569 N.2     1  UNL1       -0.1436
      3 N         144.3921  138.8103  163.4808 N.2     1  UNL1       -0.1519
      4 C         143.7890  139.1192  164.8191 C.2     1  UNL1        0.0865
      5 C         143.7762  138.3610  166.1133 C.3     1  UNL1        0.0736
      6 C         143.0769  138.9331  167.3106 C.2     1  UNL1       -0.0196
      7 C         142.3905  140.2633  167.2138 C.2     1  UNL1       -0.0016
      8 C         142.4034  141.0214  165.9196 C.2     1  UNL1        0.0027
      9 C         143.1026  140.4494  164.7223 C.2     1  UNL1        0.0395
     10 C         141.6913  140.8353  168.4113 C.ar    1  UNL1        0.0294
     11 C         142.4133  141.7882  169.3172 C.ar    1  UNL1        0.0024
     12 C         141.7140  142.3603  170.5147 C.ar    1  UNL1        0.0025
     13 C         140.2928  141.9794  170.8062 C.ar    1  UNL1        0.0320
     14 C         139.5708  141.0265  169.9002 C.ar    1  UNL1        0.1674
     15 F         138.1495  140.6456  170.1917 F       1  UNL1       -0.2018
     16 C         140.2700  140.4545  168.7028 C.ar    1  UNL1        0.1673
     17 F         139.5480  139.5015  167.7968 F       1  UNL1       -0.2018
     18 O         143.6998  143.2657  162.1970 O.2     1  UNL1       -0.2684
     19 C         142.7557  142.2609  162.7876 C.2     1  UNL1        0.2654
     20 N         141.2856  142.5544  162.8416 N.am    1  UNL1       -0.2994
     21 H         140.6659  141.8949  163.2292 H       1  UNL1        0.1498
     22 C         140.7598  143.8528  162.3050 C.3     1  UNL1        0.0972
     23 C         140.4439  145.0770  163.1122 C.3     1  UNL1        0.0467
     24 C         139.9465  146.1356  162.1731 C.3     1  UNL1        0.1526
     25 S         139.9550  145.5657  160.7856 S.O2    1  UNL1       -0.0083
     26 O         139.4313  146.9165  160.3970 O.2     1  UNL1       -0.1729
     27 O         139.8541  145.2782  159.3169 O.2     1  UNL1       -0.1729
     28 C         140.4577  144.1548  160.8671 C.3     1  UNL1        0.1703
@<TRIPOS>BOND
     1    18    19    2
     2    19    20   am
     3    20    22    1
     4    22    23    1
     5    23    24    1
     6    24    25    1
     7    25    26    2
     8    25    27    2
     9    25    28    1
    10    19     1    1
    11     1     2    2
    12     2     3    1
    13     3     4    2
    14     4     5    1
    15     5     6    1
    16     6     7    2
    17     7    10    1
    18    10    11   ar
    19    11    12   ar
    20    12    13   ar
    21    13    14   ar
    22    14    15    1
    23    14    16   ar
    24    16    17    1
    25     7     8    1
    26     8     9    2
    27    28    22    1
    28     9     1    1
    29     9     4    1
    30    16    10   ar
    31    20    21    1
@<TRIPOS>MOLECULE
*****
 28 31 0 0 0
SMALL
GASTEIGER

@<TRIPOS>ATOM
      1 C         139.0270  138.7325  165.4647 C.2     1  UNL1        0.1571
      2 N         138.8289  137.2970  165.0772 N.2     1  UNL1       -0.1436
      3 N         138.7729  137.2246  163.5800 N.2     1  UNL1       -0.1519
      4 C         138.9363  138.6153  163.0422 C.2     1  UNL1        0.0865
      5 C         138.9624  139.1534  161.6423 C.3     1  UNL1        0.0736
      6 C         139.1456  140.6235  161.4072 C.2     1  UNL1       -0.0196
      7 C         139.3026  141.5555  162.5721 C.2     1  UNL1       -0.0016
      8 C         139.2765  141.0173  163.9719 C.2     1  UNL1        0.0027
      9 C         139.0934  139.5473  164.2070 C.2     1  UNL1        0.0395
     10 C         139.4858  143.0256  162.3370 C.ar    1  UNL1        0.0294
     11 C         138.7035  144.0176  163.1455 C.ar    1  UNL1        0.0024
     12 C         138.8867  145.4878  162.9104 C.ar    1  UNL1        0.0025
     13 C         139.8522  145.9658  161.8667 C.ar    1  UNL1        0.0320
     14 C         140.6345  144.9737  161.0581 C.ar    1  UNL1        0.1674
     15 F         141.6000  145.4517  160.0144 F       1  UNL1       -0.2018
     16 C         140.4513  143.5036  161.2933 C.ar    1  UNL1        0.1673
     17 F         141.2337  142.5115  160.4847 F       1  UNL1       -0.2018
     18 O         138.0418  139.0018  167.8536 O.2     1  UNL1       -0.2684
     19 C         139.1390  139.2606  166.8642 C.2     1  UNL1        0.2654
     20 N         140.3485  140.0476  167.2743 N.am    1  UNL1       -0.2994
     21 H         141.0687  140.2175  166.6249 H       1  UNL1        0.1498
     22 C         140.4605  140.5756  168.6738 C.3     1  UNL1        0.0972
     23 C         140.9597  139.8144  169.8660 C.3     1  UNL1        0.0467
     24 C         140.9007  140.7259  171.0559 C.3     1  UNL1        0.1526
     25 S         140.3651  142.0504  170.5990 S.O2    1  UNL1       -0.0083
     26 O         140.5325  142.4371  172.0385 O.2     1  UNL1       -0.1729
     27 O         139.8645  143.4558  170.4431 O.2     1  UNL1       -0.1729
     28 C         140.0930  141.9576  169.1268 C.3     1  UNL1        0.1703
@<TRIPOS>BOND
     1    18    19    2
     2    19    20   am
     3    20    22    1
     4    22    23    1
     5    23    24    1
     6    24    25    1
     7    25    26    2
     8    25    27    2
     9    25    28    1
    10    19     1    1
    11     1     2    2
    12     2     3    1
    13     3     4    2
    14     4     5    1
    15     5     6    1
    16     6     7    2
    17     7    10    1
    18    10    11   ar
    19    11    12   ar
    20    12    13   ar
    21    13    14   ar
    22    14    15    1
    23    14    16   ar
    24    16    17    1
    25     7     8    1
    26     8     9    2
    27    28    22    1
    28     9     1    1
    29     9     4    1
    30    16    10   ar
    31    20    21    1
@<TRIPOS>MOLECULE
*****
 28 31 0 0 0
SMALL
GASTEIGER

@<TRIPOS>ATOM
      1 C         142.7722  140.2904  162.9869 C.2     1  UNL1        0.1571
      2 N         143.7458  139.3210  162.3850 N.2     1  UNL1       -0.1436
      3 N         144.2735  138.4500  163.4863 N.2     1  UNL1       -0.1519
      4 C         143.6260  138.8812  164.7689 C.2     1  UNL1        0.0865
      5 C         143.7615  138.3850  166.1779 C.3     1  UNL1        0.0736
      6 C         142.9691  139.0262  167.2782 C.2     1  UNL1       -0.0196
      7 C         142.0412  140.1636  166.9696 C.2     1  UNL1       -0.0016
      8 C         141.9057  140.6598  165.5605 C.2     1  UNL1        0.0027
      9 C         142.6982  140.0186  164.4602 C.2     1  UNL1        0.0395
     10 C         141.2487  140.8049  168.0700 C.ar    1  UNL1        0.0294
     11 C         140.0934  140.0734  168.6866 C.ar    1  UNL1        0.0024
     12 C         139.3010  140.7147  169.7871 C.ar    1  UNL1        0.0025
     13 C         139.6639  142.0874  170.2708 C.ar    1  UNL1        0.0320
     14 C         140.8193  142.8188  169.6542 C.ar    1  UNL1        0.1674
     15 F         141.1822  144.1915  170.1380 F       1  UNL1       -0.2018
     16 C         141.6116  142.1775  168.5538 C.ar    1  UNL1        0.1673
     17 F         142.7670  142.9090  167.9371 F       1  UNL1       -0.2018
     18 O         140.8540  140.9597  161.3675 O.2     1  UNL1       -0.2684
     19 C         142.0069  141.3463  162.2456 C.2     1  UNL1        0.2654
     20 N         142.3946  142.7889  162.3825 N.am    1  UNL1       -0.2994
     21 H         143.1514  143.0427  162.9589 H       1  UNL1        0.1498
     22 C         141.6293  143.8448  161.6413 C.3     1  UNL1        0.0972
     23 C         141.9001  144.3108  160.2414 C.3     1  UNL1        0.0467
     24 C         140.8971  145.3740  159.9047 C.3     1  UNL1        0.1526
     25 S         140.0064  145.5652  161.0965 S.O2    1  UNL1       -0.0083
     26 O         139.3385  146.5953  160.2347 O.2     1  UNL1       -0.1729
     27 O         138.9762  145.9717  162.1080 O.2     1  UNL1       -0.1729
     28 C         140.4590  144.6201  162.1697 C.3     1  UNL1        0.1703
@<TRIPOS>BOND
     1    18    19    2
     2    19    20   am
     3    20    22    1
     4    22    23    1
     5    23    24    1
     6    24    25    1
     7    25    26    2
     8    25    27    2
     9    25    28    1
    10    19     1    1
    11     1     2    2
    12     2     3    1
    13     3     4    2
    14     4     5    1
    15     5     6    1
    16     6     7    2
    17     7    10    1
    18    10    11   ar
    19    11    12   ar
    20    12    13   ar
    21    13    14   ar
    22    14    15    1
    23    14    16   ar
    24    16    17    1
    25     7     8    1
    26     8     9    2
    27    28    22    1
    28     9     1    1
    29     9     4    1
    30    16    10   ar
    31    20    21    1
@<TRIPOS>MOLECULE
*****
 28 31 0 0 0
SMALL
GASTEIGER

@<TRIPOS>ATOM
      1 C         141.5312  139.4702  169.7839 C.2     1  UNL1        0.1571
      2 N         140.1312  139.4715  170.3226 N.2     1  UNL1       -0.1436
      3 N         139.2377  140.0909  169.2892 N.2     1  UNL1       -0.1519
      4 C         140.0853  140.4723  168.1119 C.2     1  UNL1        0.0865
      5 C         139.7496  141.1194  166.8010 C.3     1  UNL1        0.0736
      6 C         140.8314  141.3828  165.7959 C.2     1  UNL1       -0.0196
      7 C         142.2489  140.9992  166.1017 C.2     1  UNL1       -0.0016
      8 C         142.5846  140.3521  167.4126 C.2     1  UNL1        0.0027
      9 C         141.5028  140.0887  168.4177 C.2     1  UNL1        0.0395
     10 C         143.3307  141.2627  165.0965 C.ar    1  UNL1        0.0294
     11 C         144.2796  140.1668  164.7112 C.ar    1  UNL1        0.0024
     12 C         145.3614  140.4302  163.7060 C.ar    1  UNL1        0.0025
     13 C         145.4943  141.7897  163.0861 C.ar    1  UNL1        0.0320
     14 C         144.5453  142.8857  163.4714 C.ar    1  UNL1        0.1674
     15 F         144.6781  144.2451  162.8516 F       1  UNL1       -0.2018
     16 C         143.4636  142.6221  164.4766 C.ar    1  UNL1        0.1673
     17 F         142.5146  143.7181  164.8619 F       1  UNL1       -0.2018
     18 O         143.7255  139.8945  171.1087 O.2     1  UNL1       -0.2684
     19 C         142.7462  138.9429  170.4880 C.2     1  UNL1        0.2654
     20 N         142.9820  137.4638  170.5713 N.am    1  UNL1       -0.2994
     21 H         142.3393  136.8391  170.1639 H       1  UNL1        0.1498
     22 C         144.1970  136.9365  171.2753 C.3     1  UNL1        0.0972
     23 C         145.4329  137.7192  171.6071 C.3     1  UNL1        0.0467
     24 C         146.3892  136.8004  172.3080 C.3     1  UNL1        0.1526
     25 S         145.7444  135.4498  172.4093 S.O2    1  UNL1       -0.0083
     26 O         147.0201  135.0666  173.0989 O.2     1  UNL1       -0.1729
     27 O         145.3663  134.0192  172.6548 O.2     1  UNL1       -0.1729
     28 C         144.3896  135.5339  171.7711 C.3     1  UNL1        0.1703
@<TRIPOS>BOND
     1    18    19    2
     2    19    20   am
     3    20    22    1
     4    22    23    1
     5    23    24    1
     6    24    25    1
     7    25    26    2
     8    25    27    2
     9    25    28    1
    10    19     1    1
    11     1     2    2
    12     2     3    1
    13     3     4    2
    14     4     5    1
    15     5     6    1
    16     6     7    2
    17     7    10    1
    18    10    11   ar
    19    11    12   ar
    20    12    13   ar
    21    13    14   ar
    22    14    15    1
    23    14    16   ar
    24    16    17    1
    25     7     8    1
    26     8     9    2
    27    28    22    1
    28     9     1    1
    29     9     4    1
    30    16    10   ar
    31    20    21    1
@<TRIPOS>MOLECULE
*****
 28 31 0 0 0
SMALL
GASTEIGER

@<TRIPOS>ATOM
      1 C         139.7742  139.1270  165.1617 C.2     1  UNL1        0.1571
      2 N         139.1415  137.7676  165.1190 N.2     1  UNL1       -0.1436
      3 N         138.6167  137.5440  163.7317 N.2     1  UNL1       -0.1519
      4 C         138.9250  138.7652  162.9170 C.2     1  UNL1        0.0865
      5 C         138.6468  139.1127  161.4846 C.3     1  UNL1        0.0736
      6 C         139.0839  140.4386  160.9360 C.2     1  UNL1       -0.0196
      7 C         139.7993  141.4169  161.8199 C.2     1  UNL1       -0.0016
      8 C         140.0775  141.0694  163.2522 C.2     1  UNL1        0.0027
      9 C         139.6404  139.7436  163.8008 C.2     1  UNL1        0.0395
     10 C         140.2364  142.7428  161.2712 C.ar    1  UNL1        0.0294
     11 C         141.3313  142.8070  160.2480 C.ar    1  UNL1        0.0024
     12 C         141.7684  144.1329  159.6993 C.ar    1  UNL1        0.0025
     13 C         141.1106  145.3946  160.1739 C.ar    1  UNL1        0.0320
     14 C         140.0157  145.3304  161.1972 C.ar    1  UNL1        0.1674
     15 F         139.3579  146.5922  161.6719 F       1  UNL1       -0.2018
     16 C         139.5786  144.0046  161.7458 C.ar    1  UNL1        0.1673
     17 F         138.4836  143.9404  162.7691 F       1  UNL1       -0.2018
     18 O         141.8780  139.5090  166.6374 O.2     1  UNL1       -0.2684
     19 C         140.4262  139.7589  166.3557 C.2     1  UNL1        0.2654
     20 N         139.6261  140.6409  167.2680 N.am    1  UNL1       -0.2994
     21 H         138.6732  140.8049  167.0832 H       1  UNL1        0.1498
     22 C         140.2781  141.2728  168.4620 C.3     1  UNL1        0.0972
     23 C         141.1434  142.4980  168.4486 C.3     1  UNL1        0.0467
     24 C         141.5794  142.7730  169.8573 C.3     1  UNL1        0.1526
     25 S         140.9836  141.7176  170.7412 S.O2    1  UNL1       -0.0083
     26 O         141.6943  142.4564  171.8362 O.2     1  UNL1       -0.1729
     27 O         140.5364  140.8168  171.8541 O.2     1  UNL1       -0.1729
     28 C         140.1793  140.7905  169.8789 C.3     1  UNL1        0.1703
@<TRIPOS>BOND
     1    18    19    2
     2    19    20   am
     3    20    22    1
     4    22    23    1
     5    23    24    1
     6    24    25    1
     7    25    26    2
     8    25    27    2
     9    25    28    1
    10    19     1    1
    11     1     2    2
    12     2     3    1
    13     3     4    2
    14     4     5    1
    15     5     6    1
    16     6     7    2
    17     7    10    1
    18    10    11   ar
    19    11    12   ar
    20    12    13   ar
    21    13    14   ar
    22    14    15    1
    23    14    16   ar
    24    16    17    1
    25     7     8    1
    26     8     9    2
    27    28    22    1
    28     9     1    1
    29     9     4    1
    30    16    10   ar
    31    20    21    1
@<TRIPOS>MOLECULE
*****
 28 31 0 0 0
SMALL
GASTEIGER

@<TRIPOS>ATOM
      1 C         139.1971  138.6001  165.6693 C.2     1  UNL1        0.1571
      2 N         138.3419  137.4070  165.3613 N.2     1  UNL1       -0.1436
      3 N         138.6199  136.9900  163.9475 N.2     1  UNL1       -0.1519
      4 C         139.6470  137.9254  163.3817 C.2     1  UNL1        0.0865
      5 C         140.3035  137.9997  162.0351 C.3     1  UNL1        0.0736
      6 C         141.3167  139.0690  161.7526 C.2     1  UNL1       -0.0196
      7 C         141.6734  140.0642  162.8168 C.2     1  UNL1       -0.0016
      8 C         141.0169  139.9899  164.1634 C.2     1  UNL1        0.0027
      9 C         140.0037  138.9206  164.4459 C.2     1  UNL1        0.0395
     10 C         142.6867  141.1336  162.5342 C.ar    1  UNL1        0.0294
     11 C         142.2928  142.3526  161.7540 C.ar    1  UNL1        0.0024
     12 C         143.3061  143.4220  161.4715 C.ar    1  UNL1        0.0025
     13 C         144.7132  143.2723  161.9692 C.ar    1  UNL1        0.0320
     14 C         145.1070  142.0531  162.7495 C.ar    1  UNL1        0.1674
     15 F         146.5141  141.9034  163.2472 F       1  UNL1       -0.2018
     16 C         144.0937  140.9838  163.0320 C.ar    1  UNL1        0.1673
     17 F         144.4875  139.7647  163.8122 F       1  UNL1       -0.2018
     18 O         138.1839  139.0959  168.0097 O.2     1  UNL1       -0.2684
     19 C         139.2385  139.3425  166.9720 C.2     1  UNL1        0.2654
     20 N         140.3347  140.3317  167.2371 N.am    1  UNL1       -0.2994
     21 H         141.0269  140.4936  166.5560 H       1  UNL1        0.1498
     22 C         140.3761  141.0741  168.5398 C.3     1  UNL1        0.0972
     23 C         140.3237  142.5638  168.7077 C.3     1  UNL1        0.0467
     24 C         140.3924  142.8676  170.1750 C.3     1  UNL1        0.1526
     25 S         140.4871  141.5657  170.9139 S.O2    1  UNL1       -0.0083
     26 O         140.5184  142.4401  172.1323 O.2     1  UNL1       -0.1729
     27 O         140.5884  140.4466  171.9076 O.2     1  UNL1       -0.1729
     28 C         140.4771  140.4572  169.9034 C.3     1  UNL1        0.1703
@<TRIPOS>BOND
     1    18    19    2
     2    19    20   am
     3    20    22    1
     4    22    23    1
     5    23    24    1
     6    24    25    1
     7    25    26    2
     8    25    27    2
     9    25    28    1
    10    19     1    1
    11     1     2    2
    12     2     3    1
    13     3     4    2
    14     4     5    1
    15     5     6    1
    16     6     7    2
    17     7    10    1
    18    10    11   ar
    19    11    12   ar
    20    12    13   ar
    21    13    14   ar
    22    14    15    1
    23    14    16   ar
    24    16    17    1
    25     7     8    1
    26     8     9    2
    27    28    22    1
    28     9     1    1
    29     9     4    1
    30    16    10   ar
    31    20    21    1
@<TRIPOS>MOLECULE
*****
 28 31 0 0 0
SMALL
GASTEIGER

@<TRIPOS>ATOM
      1 C         140.5105  144.4621  161.0153 C.2     1  UNL1        0.1571
      2 N         140.0140  145.8644  160.8230 N.2     1  UNL1       -0.1436
      3 N         138.8831  146.0912  161.7819 N.2     1  UNL1       -0.1519
      4 C         138.6806  144.8291  162.5668 C.2     1  UNL1        0.0865
      5 C         137.7104  144.4666  163.6518 C.3     1  UNL1        0.0736
      6 C         137.7459  143.0972  164.2629 C.2     1  UNL1       -0.0196
      7 C         138.7518  142.0904  163.7891 C.2     1  UNL1       -0.0016
      8 C         139.7220  142.4528  162.7042 C.2     1  UNL1        0.0027
      9 C         139.6865  143.8222  162.0930 C.2     1  UNL1        0.0395
     10 C         138.7873  140.7209  164.4003 C.ar    1  UNL1        0.0294
     11 C         138.9613  140.5652  165.8820 C.ar    1  UNL1        0.0024
     12 C         138.9969  139.1958  166.4932 C.ar    1  UNL1        0.0025
     13 C         138.8584  137.9821  165.6226 C.ar    1  UNL1        0.0320
     14 C         138.6844  138.1379  164.1409 C.ar    1  UNL1        0.1674
     15 F         138.5460  136.9243  163.2703 F       1  UNL1       -0.2018
     16 C         138.6489  139.5073  163.5298 C.ar    1  UNL1        0.1673
     17 F         138.4749  139.6630  162.0480 F       1  UNL1       -0.2018
     18 O         143.0384  143.9106  160.7794 O.2     1  UNL1       -0.2684
     19 C         141.6339  143.8134  160.2620 C.2     1  UNL1        0.2654
     20 N         141.3527  143.0675  158.9913 N.am    1  UNL1       -0.2994
     21 H         140.4308  143.0037  158.6517 H       1  UNL1        0.1498
     22 C         142.4760  142.4189  158.2381 C.3     1  UNL1        0.0972
     23 C         143.2970  143.0572  157.1571 C.3     1  UNL1        0.0467
     24 C         144.3040  142.0509  156.6845 C.3     1  UNL1        0.1526
     25 S         144.1053  140.7907  157.4735 S.O2    1  UNL1       -0.0083
     26 O         145.2433  140.2774  156.6419 O.2     1  UNL1       -0.1729
     27 O         144.1446  139.4232  158.0885 O.2     1  UNL1       -0.1729
     28 C         142.9756  141.0181  158.4336 C.3     1  UNL1        0.1703
@<TRIPOS>BOND
     1    18    19    2
     2    19    20   am
     3    20    22    1
     4    22    23    1
     5    23    24    1
     6    24    25    1
     7    25    26    2
     8    25    27    2
     9    25    28    1
    10    19     1    1
    11     1     2    2
    12     2     3    1
    13     3     4    2
    14     4     5    1
    15     5     6    1
    16     6     7    2
    17     7    10    1
    18    10    11   ar
    19    11    12   ar
    20    12    13   ar
    21    13    14   ar
    22    14    15    1
    23    14    16   ar
    24    16    17    1
    25     7     8    1
    26     8     9    2
    27    28    22    1
    28     9     1    1
    29     9     4    1
    30    16    10   ar
    31    20    21    1
@<TRIPOS>MOLECULE
*****
 28 31 0 0 0
SMALL
GASTEIGER

@<TRIPOS>ATOM
      1 C         142.4252  144.2305  162.5367 C.2     1  UNL1        0.1571
      2 N         143.5241  145.1691  162.9384 N.2     1  UNL1       -0.1436
      3 N         144.0883  144.6907  164.2433 N.2     1  UNL1       -0.1519
      4 C         143.3380  143.4565  164.6481 C.2     1  UNL1        0.0865
      5 C         143.4580  142.5550  165.8409 C.3     1  UNL1        0.0736
      6 C         142.5501  141.3690  165.9789 C.2     1  UNL1       -0.0196
      7 C         141.5222  141.0845  164.9241 C.2     1  UNL1       -0.0016
      8 C         141.4022  141.9861  163.7314 C.2     1  UNL1        0.0027
      9 C         142.3101  143.1721  163.5934 C.2     1  UNL1        0.0395
     10 C         140.6143  139.8985  165.0622 C.ar    1  UNL1        0.0294
     11 C         140.8699  138.6604  164.2549 C.ar    1  UNL1        0.0024
     12 C         139.9619  137.4743  164.3929 C.ar    1  UNL1        0.0025
     13 C         138.7985  137.5264  165.3383 C.ar    1  UNL1        0.0320
     14 C         138.5430  138.7646  166.1456 C.ar    1  UNL1        0.1674
     15 F         137.3795  138.8167  167.0910 F       1  UNL1       -0.2018
     16 C         139.4509  139.9506  166.0075 C.ar    1  UNL1        0.1673
     17 F         139.1954  141.1888  166.8148 F       1  UNL1       -0.2018
     18 O         140.0917  144.3160  161.3975 O.2     1  UNL1       -0.2684
     19 C         141.5881  144.3324  161.2961 C.2     1  UNL1        0.2654
     20 N         142.2476  144.4509  159.9540 N.am    1  UNL1       -0.2994
     21 H         143.2298  144.4617  159.8874 H       1  UNL1        0.1498
     22 C         141.4106  144.5528  158.7134 C.3     1  UNL1        0.0972
     23 C         141.0811  143.4280  157.7773 C.3     1  UNL1        0.0467
     24 C         140.2230  143.9774  156.6765 C.3     1  UNL1        0.1526
     25 S         140.0221  145.4418  156.9323 S.O2    1  UNL1       -0.0083
     26 O         139.2107  145.3900  155.6719 O.2     1  UNL1       -0.1729
     27 O         139.6517  146.8952  156.9246 O.2     1  UNL1       -0.1729
     28 C         140.7561  145.7974  158.1912 C.3     1  UNL1        0.1703
@<TRIPOS>BOND
     1    18    19    2
     2    19    20   am
     3    20    22    1
     4    22    23    1
     5    23    24    1
     6    24    25    1
     7    25    26    2
     8    25    27    2
     9    25    28    1
    10    19     1    1
    11     1     2    2
    12     2     3    1
    13     3     4    2
    14     4     5    1
    15     5     6    1
    16     6     7    2
    17     7    10    1
    18    10    11   ar
    19    11    12   ar
    20    12    13   ar
    21    13    14   ar
    22    14    15    1
    23    14    16   ar
    24    16    17    1
    25     7     8    1
    26     8     9    2
    27    28    22    1
    28     9     1    1
    29     9     4    1
    30    16    10   ar
    31    20    21    1
@<TRIPOS>MOLECULE
*****
 28 31 0 0 0
SMALL
GASTEIGER

@<TRIPOS>ATOM
      1 C         140.7036  144.3282  161.6129 C.2     1  UNL1        0.1571
      2 N         139.6903  145.3182  161.1197 N.2     1  UNL1       -0.1436
      3 N         138.7652  145.6395  162.2559 N.2     1  UNL1       -0.1519
      4 C         139.2067  144.8482  163.4512 C.2     1  UNL1        0.0865
      5 C         138.6726  144.7609  164.8502 C.3     1  UNL1        0.0736
      6 C         139.3366  143.8631  165.8517 C.2     1  UNL1       -0.0196
      7 C         140.5346  143.0526  165.4543 C.2     1  UNL1       -0.0016
      8 C         141.0686  143.1400  164.0553 C.2     1  UNL1        0.0027
      9 C         140.4047  144.0377  163.0538 C.2     1  UNL1        0.0395
     10 C         141.1985  142.1548  166.4559 C.ar    1  UNL1        0.0294
     11 C         142.0139  140.9851  165.9902 C.ar    1  UNL1        0.0024
     12 C         142.6779  140.0873  166.9918 C.ar    1  UNL1        0.0025
     13 C         142.5264  140.3593  168.4592 C.ar    1  UNL1        0.0320
     14 C         141.7109  141.5290  168.9249 C.ar    1  UNL1        0.1674
     15 F         141.5595  141.8010  170.3922 F       1  UNL1       -0.2018
     16 C         141.0471  142.4268  167.9233 C.ar    1  UNL1        0.1673
     17 F         140.2316  143.5965  168.3890 F       1  UNL1       -0.2018
     18 O         143.2446  143.9573  161.2183 O.2     1  UNL1       -0.2684
     19 C         141.8198  143.7332  160.8066 C.2     1  UNL1        0.2654
     20 N         141.5111  142.9139  159.5886 N.am    1  UNL1       -0.2994
     21 H         140.5759  142.7667  159.3183 H       1  UNL1        0.1498
     22 C         142.6273  142.3188  158.7823 C.3     1  UNL1        0.0972
     23 C         143.6364  143.0816  157.9762 C.3     1  UNL1        0.0467
     24 C         144.5632  142.0908  157.3363 C.3     1  UNL1        0.1526
     25 S         144.1268  140.7157  157.7471 S.O2    1  UNL1       -0.0083
     26 O         145.2825  140.2676  156.9023 O.2     1  UNL1       -0.1729
     27 O         143.9321  139.2469  157.9812 O.2     1  UNL1       -0.1729
     28 C         142.9304  140.8566  158.6407 C.3     1  UNL1        0.1703
@<TRIPOS>BOND
     1    18    19    2
     2    19    20   am
     3    20    22    1
     4    22    23    1
     5    23    24    1
     6    24    25    1
     7    25    26    2
     8    25    27    2
     9    25    28    1
    10    19     1    1
    11     1     2    2
    12     2     3    1
    13     3     4    2
    14     4     5    1
    15     5     6    1
    16     6     7    2
    17     7    10    1
    18    10    11   ar
    19    11    12   ar
    20    12    13   ar
    21    13    14   ar
    22    14    15    1
    23    14    16   ar
    24    16    17    1
    25     7     8    1
    26     8     9    2
    27    28    22    1
    28     9     1    1
    29     9     4    1
    30    16    10   ar
    31    20    21    1
