@<TRIPOS>MOLECULE
*****
 33 37 0 0 0
SMALL
GASTEIGER

@<TRIPOS>ATOM
      1 N         138.2969  138.7665  161.0726 N.pl3   1  UNL1       -0.2802
      2 H         137.4507  138.5426  160.6220 H       1  UNL1        0.1552
      3 C         139.5360  139.0104  160.2631 C.ar    1  UNL1        0.2208
      4 N         139.6813  138.3852  158.9074 N.ar    1  UNL1       -0.2111
      5 C         140.9204  138.6291  158.0979 C.ar    1  UNL1        0.1147
      6 C         142.0141  139.4982  158.6442 C.ar    1  UNL1        0.0960
      7 CL        143.2532  139.7421  157.8347 Cl      1  UNL1       -0.0790
      8 C         141.8688  140.1234  160.0000 C.ar    1  UNL1        0.1138
      9 N         140.6297  139.8795  160.8094 N.ar    1  UNL1       -0.2111
     10 C         142.9625  140.9925  160.5463 C.ar    1  UNL1        0.1031
     11 C         143.4504  142.2776  159.9459 C.ar    1  UNL1        0.1196
     12 N         144.5498  142.8084  160.8174 N.ar    1  UNL1       -0.2248
     13 C         144.7414  141.8514  161.9565 C.ar    1  UNL1        0.1479
     14 C         145.6824  141.8568  163.1245 C.ar    1  UNL1        0.0374
     15 C         145.6423  140.7400  164.1251 C.ar    1  UNL1        0.0046
     16 C         144.6613  139.6177  163.9575 C.ar    1  UNL1        0.0191
     17 C         143.7203  139.6123  162.7894 C.ar    1  UNL1        0.0815
     18 N         143.7604  140.7291  161.7889 N.ar    1  UNL1       -0.2874
     19 C         137.9053  140.1227  163.2537 C.ar    1  UNL1        0.1518
     20 C         137.9555  140.2198  164.7498 C.ar    1  UNL1        0.0353
     21 C         138.4476  139.0577  165.5607 C.ar    1  UNL1       -0.0030
     22 C         138.8894  137.7986  164.8755 C.ar    1  UNL1       -0.0014
     23 C         138.8391  137.7015  163.3795 C.ar    1  UNL1        0.0175
     24 C         138.3471  138.8636  162.5686 C.ar    1  UNL1        0.0849
     25 C         137.6091  142.6851  162.9435 C.3     1  UNL1        0.2525
     26 O         137.4133  141.2848  162.4428 O.3     1  UNL1       -0.4702
     27 C         138.4977  139.1548  167.0566 C.3     1  UNL1        0.0994
     28 N         139.6456  139.8519  167.7248 N.3     1  UNL1       -0.2646
     29 C         139.4831  140.4067  169.1089 C.3     1  UNL1        0.1049
     30 C         140.6311  141.1038  169.7770 C.3     1  UNL1        0.1595
     31 O         141.9415  141.2461  169.0611 O.3     1  UNL1       -0.3508
     32 C         142.1040  140.6913  167.6769 C.3     1  UNL1        0.1595
     33 C         140.9561  139.9942  167.0088 C.3     1  UNL1        0.1049
@<TRIPOS>BOND
     1    25    26    1
     2    26    19    1
     3    19    20   ar
     4    20    21   ar
     5    21    27    1
     6    27    28    1
     7    28    29    1
     8    29    30    1
     9    30    31    1
    10    31    32    1
    11    32    33    1
    12    21    22   ar
    13    22    23   ar
    14    23    24   ar
    15    24     1    1
    16     1     3    1
    17     3     4   ar
    18     4     5   ar
    19     5     6   ar
    20     6     7    1
    21     6     8   ar
    22     8    10    1
    23    10    11   ar
    24    11    12   ar
    25    12    13   ar
    26    13    14   ar
    27    14    15   ar
    28    15    16   ar
    29    16    17   ar
    30    17    18   ar
    31     8     9   ar
    32    24    19   ar
    33     9     3   ar
    34    33    28    1
    35    18    10   ar
    36    18    13   ar
    37     1     2    1
@<TRIPOS>MOLECULE
*****
 33 37 0 0 0
SMALL
GASTEIGER

@<TRIPOS>ATOM
      1 N         138.1276  139.0573  161.0925 N.pl3   1  UNL1       -0.2802
      2 H         137.4542  138.4808  160.6641 H       1  UNL1        0.1552
      3 C         139.0324  139.9070  160.2503 C.ar    1  UNL1        0.2208
      4 N         138.7145  140.1342  158.8022 N.ar    1  UNL1       -0.2111
      5 C         139.6193  140.9839  157.9600 C.ar    1  UNL1        0.1147
      6 C         140.8421  141.6064  158.5660 C.ar    1  UNL1        0.0960
      7 CL        141.7469  142.4562  157.7238 Cl      1  UNL1       -0.0790
      8 C         141.1600  141.3792  160.0143 C.ar    1  UNL1        0.1138
      9 N         140.2552  140.5295  160.8563 N.ar    1  UNL1       -0.2111
     10 C         142.3828  142.0018  160.6203 C.ar    1  UNL1        0.1031
     11 C         143.8043  141.6437  160.3022 C.ar    1  UNL1        0.1196
     12 N         144.6988  142.5123  161.1361 N.ar    1  UNL1       -0.2248
     13 C         143.8301  143.4072  161.9695 C.ar    1  UNL1        0.1479
     14 C         144.1576  144.4686  162.9775 C.ar    1  UNL1        0.0374
     15 C         143.0537  145.2145  163.6667 C.ar    1  UNL1        0.0046
     16 C         141.6223  144.8990  163.3479 C.ar    1  UNL1        0.0191
     17 C         141.2949  143.8376  162.3399 C.ar    1  UNL1        0.0815
     18 N         142.3988  143.0917  161.6507 N.ar    1  UNL1       -0.2874
     19 C         137.7852  140.2884  163.3546 C.ar    1  UNL1        0.1518
     20 C         137.9064  140.3169  164.8495 C.ar    1  UNL1        0.0353
     21 C         138.4911  139.1427  165.5770 C.ar    1  UNL1       -0.0030
     22 C         138.9546  137.9400  164.8098 C.ar    1  UNL1       -0.0014
     23 C         138.8334  137.9116  163.3149 C.ar    1  UNL1        0.0175
     24 C         138.2487  139.0858  162.5873 C.ar    1  UNL1        0.0849
     25 C         137.7173  142.8449  162.8962 C.3     1  UNL1        0.2525
     26 O         137.2005  141.4627  162.6270 O.3     1  UNL1       -0.4702
     27 C         138.6122  139.1712  167.0718 C.3     1  UNL1        0.0994
     28 N         139.7368  139.9238  167.7189 N.3     1  UNL1       -0.2646
     29 C         141.0327  140.1112  166.9871 C.3     1  UNL1        0.1049
     30 C         142.1574  140.8639  167.6342 C.3     1  UNL1        0.1595
     31 O         141.9862  141.4291  169.0130 O.3     1  UNL1       -0.3508
     32 C         140.6903  141.2417  169.7448 C.3     1  UNL1        0.1595
     33 C         139.5656  140.4891  169.0978 C.3     1  UNL1        0.1049
@<TRIPOS>BOND
     1    25    26    1
     2    26    19    1
     3    19    20   ar
     4    20    21   ar
     5    21    27    1
     6    27    28    1
     7    28    29    1
     8    29    30    1
     9    30    31    1
    10    31    32    1
    11    32    33    1
    12    21    22   ar
    13    22    23   ar
    14    23    24   ar
    15    24     1    1
    16     1     3    1
    17     3     4   ar
    18     4     5   ar
    19     5     6   ar
    20     6     7    1
    21     6     8   ar
    22     8    10    1
    23    10    11   ar
    24    11    12   ar
    25    12    13   ar
    26    13    14   ar
    27    14    15   ar
    28    15    16   ar
    29    16    17   ar
    30    17    18   ar
    31     8     9   ar
    32    24    19   ar
    33     9     3   ar
    34    33    28    1
    35    18    10   ar
    36    18    13   ar
    37     1     2    1
@<TRIPOS>MOLECULE
*****
 33 37 0 0 0
SMALL
GASTEIGER

@<TRIPOS>ATOM
      1 N         142.7762  137.5806  161.8913 N.pl3   1  UNL1       -0.2802
      2 H         143.3571  136.8023  162.0527 H       1  UNL1        0.1552
      3 C         141.6421  137.8769  162.8273 C.ar    1  UNL1        0.2208
      4 N         141.3370  136.9381  163.9567 N.ar    1  UNL1       -0.2111
      5 C         140.2029  137.2344  164.8927 C.ar    1  UNL1        0.1147
      6 C         139.3740  138.4695  164.6993 C.ar    1  UNL1        0.0960
      7 CL        138.2399  138.7659  165.6353 Cl      1  UNL1       -0.0790
      8 C         139.6791  139.4084  163.5698 C.ar    1  UNL1        0.1138
      9 N         140.8132  139.1120  162.6339 N.ar    1  UNL1       -0.2111
     10 C         138.8502  140.6435  163.3764 C.ar    1  UNL1        0.1031
     11 C         137.7486  140.8178  162.3733 C.ar    1  UNL1        0.1196
     12 N         137.1950  142.2032  162.5291 N.ar    1  UNL1       -0.2248
     13 C         137.9543  142.8850  163.6284 C.ar    1  UNL1        0.1479
     14 C         137.8465  144.2590  164.2202 C.ar    1  UNL1        0.0374
     15 C         138.7616  144.6691  165.3357 C.ar    1  UNL1        0.0046
     16 C         139.7846  143.7051  165.8594 C.ar    1  UNL1        0.0191
     17 C         139.8925  142.3311  165.2675 C.ar    1  UNL1        0.0815
     18 N         138.9774  141.9210  164.1521 N.ar    1  UNL1       -0.2874
     19 C         143.7891  139.7494  160.8813 C.ar    1  UNL1        0.1518
     20 C         144.0381  140.6389  159.6993 C.ar    1  UNL1        0.0353
     21 C         143.5232  140.2488  158.3455 C.ar    1  UNL1       -0.0030
     22 C         142.7594  138.9694  158.1737 C.ar    1  UNL1       -0.0014
     23 C         142.5104  138.0800  159.3556 C.ar    1  UNL1        0.0175
     24 C         143.0252  138.4700  160.7095 C.ar    1  UNL1        0.0849
     25 C         145.0246  141.4424  162.4167 C.3     1  UNL1        0.2525
     26 O         144.3039  140.1395  162.2351 O.3     1  UNL1       -0.4702
     27 C         143.7722  141.1382  157.1637 C.3     1  UNL1        0.0994
     28 N         145.1752  141.5193  156.7943 N.3     1  UNL1       -0.2646
     29 C         145.9114  142.5455  157.6035 C.3     1  UNL1        0.1049
     30 C         147.3145  142.9265  157.2340 C.3     1  UNL1        0.1595
     31 O         147.9813  142.2813  156.0554 O.3     1  UNL1       -0.3508
     32 C         147.2451  141.2550  155.2463 C.3     1  UNL1        0.1595
     33 C         145.8421  140.8740  155.6156 C.3     1  UNL1        0.1049
@<TRIPOS>BOND
     1    25    26    1
     2    26    19    1
     3    19    20   ar
     4    20    21   ar
     5    21    27    1
     6    27    28    1
     7    28    29    1
     8    29    30    1
     9    30    31    1
    10    31    32    1
    11    32    33    1
    12    21    22   ar
    13    22    23   ar
    14    23    24   ar
    15    24     1    1
    16     1     3    1
    17     3     4   ar
    18     4     5   ar
    19     5     6   ar
    20     6     7    1
    21     6     8   ar
    22     8    10    1
    23    10    11   ar
    24    11    12   ar
    25    12    13   ar
    26    13    14   ar
    27    14    15   ar
    28    15    16   ar
    29    16    17   ar
    30    17    18   ar
    31     8     9   ar
    32    24    19   ar
    33     9     3   ar
    34    33    28    1
    35    18    10   ar
    36    18    13   ar
    37     1     2    1
@<TRIPOS>MOLECULE
*****
 33 37 0 0 0
SMALL
GASTEIGER

@<TRIPOS>ATOM
      1 N         140.1183  137.5481  163.7955 N.pl3   1  UNL1       -0.2802
      2 H         140.1061  136.5647  163.7520 H       1  UNL1        0.1552
      3 C         140.4138  138.3497  162.5626 C.ar    1  UNL1        0.2208
      4 N         140.9669  137.6737  161.3432 N.ar    1  UNL1       -0.2111
      5 C         141.2625  138.4753  160.1103 C.ar    1  UNL1        0.1147
      6 C         141.0050  139.9530  160.0968 C.ar    1  UNL1        0.0960
      7 CL        141.3005  140.7546  158.8639 Cl      1  UNL1       -0.0790
      8 C         140.4518  140.6291  161.3163 C.ar    1  UNL1        0.1138
      9 N         140.1563  139.8274  162.5491 N.ar    1  UNL1       -0.2111
     10 C         140.1943  142.1067  161.3028 C.ar    1  UNL1        0.1031
     11 C         139.2384  142.8269  160.3987 C.ar    1  UNL1        0.1196
     12 N         139.3008  144.2889  160.7282 N.ar    1  UNL1       -0.2248
     13 C         140.2953  144.4723  161.8361 C.ar    1  UNL1        0.1479
     14 C         140.7694  145.6931  162.5674 C.ar    1  UNL1        0.0374
     15 C         141.7957  145.5653  163.6538 C.ar    1  UNL1        0.0046
     16 C         142.3479  144.2166  164.0089 C.ar    1  UNL1        0.0191
     17 C         141.8738  142.9958  163.2776 C.ar    1  UNL1        0.0815
     18 N         140.8475  143.1236  162.1912 N.ar    1  UNL1       -0.2874
     19 C         140.9468  138.9607  165.8124 C.ar    1  UNL1        0.1518
     20 C         140.6697  139.6575  167.1117 C.ar    1  UNL1        0.0353
     21 C         139.2870  139.6383  167.6930 C.ar    1  UNL1       -0.0030
     22 C         138.1815  138.9224  166.9752 C.ar    1  UNL1       -0.0014
     23 C         138.4586  138.2257  165.6760 C.ar    1  UNL1        0.0175
     24 C         139.8413  138.2448  165.0946 C.ar    1  UNL1        0.0849
     25 C         143.4689  138.3617  165.9856 C.3     1  UNL1        0.2525
     26 O         142.3294  138.9799  165.2311 O.3     1  UNL1       -0.4702
     27 C         139.0100  140.3350  168.9921 C.3     1  UNL1        0.0994
     28 N         140.0813  141.1566  169.6458 N.3     1  UNL1       -0.2646
     29 C         140.2440  142.6028  169.2825 C.3     1  UNL1        0.1049
     30 C         141.3154  143.4244  169.9362 C.3     1  UNL1        0.1595
     31 O         142.2240  142.7997  170.9532 O.3     1  UNL1       -0.3508
     32 C         142.0613  141.3535  171.3165 C.3     1  UNL1        0.1595
     33 C         140.9900  140.5319  170.6628 C.3     1  UNL1        0.1049
@<TRIPOS>BOND
     1    25    26    1
     2    26    19    1
     3    19    20   ar
     4    20    21   ar
     5    21    27    1
     6    27    28    1
     7    28    29    1
     8    29    30    1
     9    30    31    1
    10    31    32    1
    11    32    33    1
    12    21    22   ar
    13    22    23   ar
    14    23    24   ar
    15    24     1    1
    16     1     3    1
    17     3     4   ar
    18     4     5   ar
    19     5     6   ar
    20     6     7    1
    21     6     8   ar
    22     8    10    1
    23    10    11   ar
    24    11    12   ar
    25    12    13   ar
    26    13    14   ar
    27    14    15   ar
    28    15    16   ar
    29    16    17   ar
    30    17    18   ar
    31     8     9   ar
    32    24    19   ar
    33     9     3   ar
    34    33    28    1
    35    18    10   ar
    36    18    13   ar
    37     1     2    1
@<TRIPOS>MOLECULE
*****
 33 37 0 0 0
SMALL
GASTEIGER

@<TRIPOS>ATOM
      1 N         141.6539  137.3706  163.3513 N.pl3   1  UNL1       -0.2802
      2 H         141.6766  136.3881  163.2924 H       1  UNL1        0.1552
      3 C         142.2198  138.2018  162.2383 C.ar    1  UNL1        0.2208
      4 N         142.7380  137.5394  160.9963 N.ar    1  UNL1       -0.2111
      5 C         143.3038  138.3707  159.8833 C.ar    1  UNL1        0.1147
      6 C         143.3515  139.8644  160.0123 C.ar    1  UNL1        0.0960
      7 CL        143.9173  140.6956  158.8993 Cl      1  UNL1       -0.0790
      8 C         142.8333  140.5268  161.2544 C.ar    1  UNL1        0.1138
      9 N         142.2675  139.6955  162.3674 N.ar    1  UNL1       -0.2111
     10 C         142.8809  142.0205  161.3835 C.ar    1  UNL1        0.1031
     11 C         142.4810  143.0097  160.3292 C.ar    1  UNL1        0.1196
     12 N         142.6898  144.3878  160.8836 N.ar    1  UNL1       -0.2248
     13 C         143.2188  144.2502  162.2805 C.ar    1  UNL1        0.1479
     14 C         143.6082  145.2682  163.3111 C.ar    1  UNL1        0.0374
     15 C         144.1157  144.8231  164.6505 C.ar    1  UNL1        0.0046
     16 C         144.2338  143.3600  164.9595 C.ar    1  UNL1        0.0191
     17 C         143.8444  142.3420  163.9289 C.ar    1  UNL1        0.0815
     18 N         143.3369  142.7871  162.5894 N.ar    1  UNL1       -0.2874
     19 C         139.5630  138.1245  164.6965 C.ar    1  UNL1        0.1518
     20 C         138.9627  138.7902  165.8994 C.ar    1  UNL1        0.0353
     21 C         139.8530  139.3674  166.9596 C.ar    1  UNL1       -0.0030
     22 C         141.3436  139.2790  166.8172 C.ar    1  UNL1       -0.0014
     23 C         141.9439  138.6134  165.6144 C.ar    1  UNL1        0.0175
     24 C         141.0536  138.0361  164.5540 C.ar    1  UNL1        0.0849
     25 C         138.2896  138.3758  162.4459 C.3     1  UNL1        0.2525
     26 O         138.6727  137.5473  163.6363 O.3     1  UNL1       -0.4702
     27 C         139.2527  140.0329  168.1624 C.3     1  UNL1        0.0994
     28 N         140.1168  140.8491  169.0773 N.3     1  UNL1       -0.2646
     29 C         140.7035  140.2256  170.3090 C.3     1  UNL1        0.1049
     30 C         141.5677  141.0418  171.2239 C.3     1  UNL1        0.1595
     31 O         141.8451  142.4815  170.9072 O.3     1  UNL1       -0.3508
     32 C         141.2585  143.1050  169.6755 C.3     1  UNL1        0.1595
     33 C         140.3943  142.2888  168.7606 C.3     1  UNL1        0.1049
@<TRIPOS>BOND
     1    25    26    1
     2    26    19    1
     3    19    20   ar
     4    20    21   ar
     5    21    27    1
     6    27    28    1
     7    28    29    1
     8    29    30    1
     9    30    31    1
    10    31    32    1
    11    32    33    1
    12    21    22   ar
    13    22    23   ar
    14    23    24   ar
    15    24     1    1
    16     1     3    1
    17     3     4   ar
    18     4     5   ar
    19     5     6   ar
    20     6     7    1
    21     6     8   ar
    22     8    10    1
    23    10    11   ar
    24    11    12   ar
    25    12    13   ar
    26    13    14   ar
    27    14    15   ar
    28    15    16   ar
    29    16    17   ar
    30    17    18   ar
    31     8     9   ar
    32    24    19   ar
    33     9     3   ar
    34    33    28    1
    35    18    10   ar
    36    18    13   ar
    37     1     2    1
@<TRIPOS>MOLECULE
*****
 33 37 0 0 0
SMALL
GASTEIGER

@<TRIPOS>ATOM
      1 N         143.0090  138.0770  161.2656 N.pl3   1  UNL1       -0.2802
      2 H         143.4003  137.2546  160.8919 H       1  UNL1        0.1552
      3 C         142.4108  139.1053  160.3520 C.ar    1  UNL1        0.2208
      4 N         142.2253  138.7974  158.8957 N.ar    1  UNL1       -0.2111
      5 C         141.6270  139.8257  157.9820 C.ar    1  UNL1        0.1147
      6 C         141.2142  141.1618  158.5247 C.ar    1  UNL1        0.0960
      7 CL        140.6159  142.1900  157.6110 Cl      1  UNL1       -0.0790
      8 C         141.3997  141.4696  159.9811 C.ar    1  UNL1        0.1138
      9 N         141.9979  140.4414  160.8946 N.ar    1  UNL1       -0.2111
     10 C         140.9869  142.8057  160.5237 C.ar    1  UNL1        0.1031
     11 C         141.6618  144.1164  160.2472 C.ar    1  UNL1        0.1196
     12 N         140.9187  145.1864  160.9907 N.ar    1  UNL1       -0.2248
     13 C         139.7845  144.5370  161.7268 C.ar    1  UNL1        0.1479
     14 C         138.7188  145.0953  162.6226 C.ar    1  UNL1        0.0374
     15 C         137.6952  144.1823  163.2297 C.ar    1  UNL1        0.0046
     16 C         137.7373  142.7110  162.9411 C.ar    1  UNL1        0.0191
     17 C         138.8030  142.1526  162.0453 C.ar    1  UNL1        0.0815
     18 N         139.8266  143.0656  161.4382 N.ar    1  UNL1       -0.2874
     19 C         141.8729  137.7979  163.5854 C.ar    1  UNL1        0.1518
     20 C         141.8752  138.0228  165.0685 C.ar    1  UNL1        0.0353
     21 C         143.0159  138.7517  165.7148 C.ar    1  UNL1       -0.0030
     22 C         144.1542  139.2557  164.8780 C.ar    1  UNL1       -0.0014
     23 C         144.1519  139.0308  163.3950 C.ar    1  UNL1        0.0175
     24 C         143.0113  138.3019  162.7486 C.ar    1  UNL1        0.0849
     25 C         139.4175  137.7622  162.7371 C.3     1  UNL1        0.2525
     26 O         140.7323  137.0690  162.9391 O.3     1  UNL1       -0.4702
     27 C         143.0181  138.9766  167.1978 C.3     1  UNL1        0.0994
     28 N         142.1126  140.0091  167.8011 N.3     1  UNL1       -0.2646
     29 C         141.8695  141.3042  167.0844 C.3     1  UNL1        0.1049
     30 C         140.9640  142.3367  167.6878 C.3     1  UNL1        0.1595
     31 O         140.3016  142.0742  169.0078 O.3     1  UNL1       -0.3508
     32 C         140.5448  140.7791  169.7244 C.3     1  UNL1        0.1595
     33 C         141.4502  139.7466  169.1211 C.3     1  UNL1        0.1049
@<TRIPOS>BOND
     1    25    26    1
     2    26    19    1
     3    19    20   ar
     4    20    21   ar
     5    21    27    1
     6    27    28    1
     7    28    29    1
     8    29    30    1
     9    30    31    1
    10    31    32    1
    11    32    33    1
    12    21    22   ar
    13    22    23   ar
    14    23    24   ar
    15    24     1    1
    16     1     3    1
    17     3     4   ar
    18     4     5   ar
    19     5     6   ar
    20     6     7    1
    21     6     8   ar
    22     8    10    1
    23    10    11   ar
    24    11    12   ar
    25    12    13   ar
    26    13    14   ar
    27    14    15   ar
    28    15    16   ar
    29    16    17   ar
    30    17    18   ar
    31     8     9   ar
    32    24    19   ar
    33     9     3   ar
    34    33    28    1
    35    18    10   ar
    36    18    13   ar
    37     1     2    1
@<TRIPOS>MOLECULE
*****
 33 37 0 0 0
SMALL
GASTEIGER

@<TRIPOS>ATOM
      1 N         140.6498  145.9342  161.1998 N.pl3   1  UNL1       -0.2802
      2 H         140.5991  146.9174  161.2054 H       1  UNL1        0.1552
      3 C         140.7046  145.1935  159.8966 C.ar    1  UNL1        0.2208
      4 N         141.7732  145.5164  158.8948 N.ar    1  UNL1       -0.2111
      5 C         141.8280  144.7757  157.5916 C.ar    1  UNL1        0.1147
      6 C         140.8141  143.7121  157.2902 C.ar    1  UNL1        0.0960
      7 CL        140.8689  142.9714  155.9870 Cl      1  UNL1       -0.0790
      8 C         139.7454  143.3891  158.2922 C.ar    1  UNL1        0.1138
      9 N         139.6907  144.1299  159.5953 N.ar    1  UNL1       -0.2111
     10 C         138.7316  142.3255  157.9908 C.ar    1  UNL1        0.1031
     11 C         138.5745  141.0249  158.7214 C.ar    1  UNL1        0.1196
     12 N         137.4427  140.2714  158.0881 N.ar    1  UNL1       -0.2248
     13 C         136.9003  141.1062  156.9661 C.ar    1  UNL1        0.1479
     14 C         135.7840  140.8744  155.9914 C.ar    1  UNL1        0.0374
     15 C         135.4643  141.9121  154.9566 C.ar    1  UNL1        0.0046
     16 C         136.2610  143.1816  154.8964 C.ar    1  UNL1        0.0191
     17 C         137.3773  143.4135  155.8711 C.ar    1  UNL1        0.0815
     18 N         137.6969  142.3757  156.9060 N.ar    1  UNL1       -0.2874
     19 C         141.9277  144.4862  162.9377 C.ar    1  UNL1        0.1518
     20 C         141.9500  143.7290  164.2324 C.ar    1  UNL1        0.0353
     21 C         140.7169  143.6626  165.0838 C.ar    1  UNL1       -0.0030
     22 C         139.4614  144.3535  164.6406 C.ar    1  UNL1       -0.0014
     23 C         139.4390  145.1106  163.3459 C.ar    1  UNL1        0.0175
     24 C         140.6722  145.1770  162.4944 C.ar    1  UNL1        0.0849
     25 C         144.3794  143.7657  162.4684 C.3     1  UNL1        0.2525
     26 O         143.1609  144.5526  162.0863 O.3     1  UNL1       -0.4702
     27 C         140.7393  142.9055  166.3785 C.3     1  UNL1        0.0994
     28 N         139.9404  141.6442  166.5235 N.3     1  UNL1       -0.2646
     29 C         139.9151  140.9192  167.8364 C.3     1  UNL1        0.1049
     30 C         139.1162  139.6579  167.9813 C.3     1  UNL1        0.1595
     31 O         138.3427  139.1216  166.8134 O.3     1  UNL1       -0.3508
     32 C         138.3680  139.8465  165.5005 C.3     1  UNL1        0.1595
     33 C         139.1669  141.1078  165.3555 C.3     1  UNL1        0.1049
@<TRIPOS>BOND
     1    25    26    1
     2    26    19    1
     3    19    20   ar
     4    20    21   ar
     5    21    27    1
     6    27    28    1
     7    28    29    1
     8    29    30    1
     9    30    31    1
    10    31    32    1
    11    32    33    1
    12    21    22   ar
    13    22    23   ar
    14    23    24   ar
    15    24     1    1
    16     1     3    1
    17     3     4   ar
    18     4     5   ar
    19     5     6   ar
    20     6     7    1
    21     6     8   ar
    22     8    10    1
    23    10    11   ar
    24    11    12   ar
    25    12    13   ar
    26    13    14   ar
    27    14    15   ar
    28    15    16   ar
    29    16    17   ar
    30    17    18   ar
    31     8     9   ar
    32    24    19   ar
    33     9     3   ar
    34    33    28    1
    35    18    10   ar
    36    18    13   ar
    37     1     2    1
@<TRIPOS>MOLECULE
*****
 33 37 0 0 0
SMALL
GASTEIGER

@<TRIPOS>ATOM
      1 N         137.7380  141.4215  161.3196 N.pl3   1  UNL1       -0.2802
      2 H         136.7575  141.4438  161.2336 H       1  UNL1        0.1552
      3 C         138.3930  140.3703  162.1656 C.ar    1  UNL1        0.2208
      4 N         139.2497  139.3186  161.5253 N.ar    1  UNL1       -0.2111
      5 C         139.9047  138.2674  162.3714 C.ar    1  UNL1        0.1147
      6 C         139.7030  138.2678  163.8578 C.ar    1  UNL1        0.0960
      7 CL        140.3580  137.2165  164.7038 Cl      1  UNL1       -0.0790
      8 C         138.8462  139.3195  164.4981 C.ar    1  UNL1        0.1138
      9 N         138.1913  140.3707  163.6520 N.ar    1  UNL1       -0.2111
     10 C         138.6445  139.3200  165.9845 C.ar    1  UNL1        0.1031
     11 C         137.7257  138.4144  166.7498 C.ar    1  UNL1        0.1196
     12 N         137.8396  138.7609  168.2048 N.ar    1  UNL1       -0.2248
     13 C         138.8288  139.8805  168.3387 C.ar    1  UNL1        0.1479
     14 C         139.3408  140.6300  169.5329 C.ar    1  UNL1        0.0374
     15 C         140.3503  141.7250  169.3548 C.ar    1  UNL1        0.0046
     16 C         140.8478  142.0706  167.9825 C.ar    1  UNL1        0.0191
     17 C         140.3358  141.3211  166.7884 C.ar    1  UNL1        0.0815
     18 N         139.3263  140.2260  166.9665 N.ar    1  UNL1       -0.2874
     19 C         139.2522  143.5319  161.3785 C.ar    1  UNL1        0.1518
     20 C         140.0911  144.5493  160.6633 C.ar    1  UNL1        0.0353
     21 C         140.2545  144.4735  159.1741 C.ar    1  UNL1       -0.0030
     22 C         139.5791  143.3805  158.4001 C.ar    1  UNL1       -0.0014
     23 C         138.7403  142.3632  159.1153 C.ar    1  UNL1        0.0175
     24 C         138.5768  142.4389  160.6045 C.ar    1  UNL1        0.0849
     25 C         138.0218  144.4786  163.4617 C.3     1  UNL1        0.2525
     26 O         139.0888  143.6077  162.8676 O.3     1  UNL1       -0.4702
     27 C         141.0933  145.4909  158.4590 C.3     1  UNL1        0.0994
     28 N         140.6322  146.0551  157.1479 N.3     1  UNL1       -0.2646
     29 C         141.3188  145.6543  155.8759 C.3     1  UNL1        0.1049
     30 C         140.8576  146.2186  154.5648 C.3     1  UNL1        0.1595
     31 O         139.7100  147.1837  154.5256 O.3     1  UNL1       -0.3508
     32 C         139.0235  147.5845  155.7976 C.3     1  UNL1        0.1595
     33 C         139.4845  147.0203  157.1087 C.3     1  UNL1        0.1049
@<TRIPOS>BOND
     1    25    26    1
     2    26    19    1
     3    19    20   ar
     4    20    21   ar
     5    21    27    1
     6    27    28    1
     7    28    29    1
     8    29    30    1
     9    30    31    1
    10    31    32    1
    11    32    33    1
    12    21    22   ar
    13    22    23   ar
    14    23    24   ar
    15    24     1    1
    16     1     3    1
    17     3     4   ar
    18     4     5   ar
    19     5     6   ar
    20     6     7    1
    21     6     8   ar
    22     8    10    1
    23    10    11   ar
    24    11    12   ar
    25    12    13   ar
    26    13    14   ar
    27    14    15   ar
    28    15    16   ar
    29    16    17   ar
    30    17    18   ar
    31     8     9   ar
    32    24    19   ar
    33     9     3   ar
    34    33    28    1
    35    18    10   ar
    36    18    13   ar
    37     1     2    1
@<TRIPOS>MOLECULE
*****
 33 37 0 0 0
SMALL
GASTEIGER

@<TRIPOS>ATOM
      1 N         144.6486  139.2706  162.8332 N.pl3   1  UNL1       -0.2802
      2 H         145.3812  138.6135  162.8040 H       1  UNL1        0.1552
      3 C         143.7339  139.3217  164.0209 C.ar    1  UNL1        0.2208
      4 N         144.1912  138.7817  165.3435 N.ar    1  UNL1       -0.2111
      5 C         143.2765  138.8329  166.5312 C.ar    1  UNL1        0.1147
      6 C         141.9045  139.4241  166.3963 C.ar    1  UNL1        0.0960
      7 CL        140.9898  139.4753  167.5840 Cl      1  UNL1       -0.0790
      8 C         141.4473  139.9642  165.0736 C.ar    1  UNL1        0.1138
      9 N         142.3620  139.9129  163.8860 N.ar    1  UNL1       -0.2111
     10 C         140.0753  140.5554  164.9388 C.ar    1  UNL1        0.1031
     11 C         138.7865  139.7896  164.8861 C.ar    1  UNL1        0.1196
     12 N         137.6660  140.7772  164.7477 N.ar    1  UNL1       -0.2248
     13 C         138.2622  142.1532  164.7148 C.ar    1  UNL1        0.1479
     14 C         137.6416  143.5133  164.5926 C.ar    1  UNL1        0.0374
     15 C         138.5100  144.7363  164.5885 C.ar    1  UNL1        0.0046
     16 C         139.9991  144.5992  164.7066 C.ar    1  UNL1        0.0191
     17 C         140.6197  143.2391  164.8288 C.ar    1  UNL1        0.0815
     18 N         139.7512  142.0161  164.8329 N.ar    1  UNL1       -0.2874
     19 C         144.8768  141.6517  161.8193 C.ar    1  UNL1        0.1518
     20 C         144.6753  142.6016  160.6758 C.ar    1  UNL1        0.0353
     21 C         144.0443  142.1200  159.4031 C.ar    1  UNL1       -0.0030
     22 C         143.6147  140.6887  159.2737 C.ar    1  UNL1       -0.0014
     23 C         143.8162  139.7389  160.4170 C.ar    1  UNL1        0.0175
     24 C         144.4472  140.2204  161.6899 C.ar    1  UNL1        0.0849
     25 C         144.6999  142.9257  164.0766 C.3     1  UNL1        0.2525
     26 O         145.5078  142.1333  163.0920 O.3     1  UNL1       -0.4702
     27 C         143.8429  143.0698  158.2598 C.3     1  UNL1        0.0994
     28 N         142.6634  143.9966  158.2536 N.3     1  UNL1       -0.2646
     29 C         141.7237  144.0223  159.4225 C.3     1  UNL1        0.1049
     30 C         140.5442  144.9491  159.4162 C.3     1  UNL1        0.1595
     31 O         140.3045  145.8501  158.2412 O.3     1  UNL1       -0.3508
     32 C         141.2442  145.8244  157.0723 C.3     1  UNL1        0.1595
     33 C         142.4236  144.8976  157.0785 C.3     1  UNL1        0.1049
@<TRIPOS>BOND
     1    25    26    1
     2    26    19    1
     3    19    20   ar
     4    20    21   ar
     5    21    27    1
     6    27    28    1
     7    28    29    1
     8    29    30    1
     9    30    31    1
    10    31    32    1
    11    32    33    1
    12    21    22   ar
    13    22    23   ar
    14    23    24   ar
    15    24     1    1
    16     1     3    1
    17     3     4   ar
    18     4     5   ar
    19     5     6   ar
    20     6     7    1
    21     6     8   ar
    22     8    10    1
    23    10    11   ar
    24    11    12   ar
    25    12    13   ar
    26    13    14   ar
    27    14    15   ar
    28    15    16   ar
    29    16    17   ar
    30    17    18   ar
    31     8     9   ar
    32    24    19   ar
    33     9     3   ar
    34    33    28    1
    35    18    10   ar
    36    18    13   ar
    37     1     2    1
