@<TRIPOS>MOLECULE
*****
 31 35 0 0 0
SMALL
GASTEIGER

@<TRIPOS>ATOM
      1 C         142.3215  144.1481  161.6937 C.3     1  UNL1        0.0730
      2 N         143.1826  143.0416  162.2268 N.3     1  UNL1       -0.2726
      3 C         144.3257  142.3893  161.5073 C.3     1  UNL1        0.0721
      4 C         144.9013  141.3377  162.4088 C.3     1  UNL1        0.0190
      5 C         144.1138  141.3400  163.6855 C.3     1  UNL1        0.0202
      6 C         144.8878  140.2398  164.3492 C.3     1  UNL1        0.0062
      7 C         143.7447  140.8921  165.0687 C.3     1  UNL1        0.0259
      8 C         143.0516  142.3931  163.5730 C.3     1  UNL1        0.0724
      9 C         142.8715  141.0101  166.2826 C.ar    1  UNL1        0.0051
     10 C         143.0746  142.1422  167.2454 C.ar    1  UNL1        0.0002
     11 C         142.2015  142.2602  168.4594 C.ar    1  UNL1        0.0295
     12 C         141.1252  141.2460  168.7105 C.ar    1  UNL1        0.1424
     13 F         140.2521  141.3640  169.9244 F       1  UNL1       -0.2041
     14 C         140.9221  140.1139  167.7477 C.ar    1  UNL1        0.0589
     15 C         141.7952  139.9959  166.5338 C.ar    1  UNL1        0.1384
     16 F         141.5921  138.8638  165.5710 F       1  UNL1       -0.2044
     17 C         141.4552  144.9405  162.6273 C.3     1  UNL1        0.0294
     18 C         140.1200  145.4447  162.1656 C.3     1  UNL1        0.0666
     19 S         138.8687  145.0023  162.8644 S.3     1  UNL1       -0.0756
     20 C         138.2340  141.2241  163.4874 C.ar    1  UNL1        0.2029
     21 N         137.5090  141.4299  162.1904 N.ar    1  UNL1       -0.1250
     22 N         137.6585  142.8702  161.7992 N.ar    1  UNL1       -0.1220
     23 C         138.4759  143.5547  162.8544 C.ar    1  UNL1        0.1933
     24 N         138.8316  142.5374  163.8977 N.ar    1  UNL1       -0.2860
     25 C         139.6426  142.7890  165.1343 C.3     1  UNL1        0.1341
     26 C         139.3470  138.3963  162.2979 C.3     1  UNL1        0.0556
     27 C         138.8540  138.6322  163.6948 C.ar    1  UNL1        0.1001
     28 N         138.7860  137.6098  164.7903 N.ar    1  UNL1       -0.2085
     29 C         138.2324  138.2776  166.0140 C.ar    1  UNL1        0.2849
     30 O         137.9582  139.7129  165.6749 O.2     1  UNL1       -0.4283
     31 C         138.3424  139.9320  164.2416 C.ar    1  UNL1        0.1964
@<TRIPOS>BOND
     1    26    27    1
     2    27    28   ar
     3    28    29   ar
     4    29    30   ar
     5    30    31   ar
     6    31    20    1
     7    20    21   ar
     8    21    22   ar
     9    22    23   ar
    10    23    19    1
    11    19    18    1
    12    18    17    1
    13    17     1    1
    14     1     2    1
    15     2     3    1
    16     3     4    1
    17     5     4    1
    18     5     6    1
    19     6     7    1
    20     7     9    1
    21     9    10   ar
    22    10    11   ar
    23    11    12   ar
    24    12    13    1
    25    12    14   ar
    26    14    15   ar
    27    15    16    1
    28     5     8    1
    29    23    24   ar
    30    24    25    1
    31    31    27   ar
    32    24    20   ar
    33     8     2    1
    34     7     5    1
    35    15     9   ar
@<TRIPOS>MOLECULE
*****
 31 35 0 0 0
SMALL
GASTEIGER

@<TRIPOS>ATOM
      1 C         138.5541  138.8420  163.4146 C.3     1  UNL1        0.0730
      2 N         139.8720  138.6946  164.1155 N.3     1  UNL1       -0.2726
      3 C         141.0373  137.8788  163.6396 C.3     1  UNL1        0.0721
      4 C         142.1415  138.0172  164.6454 C.3     1  UNL1        0.0190
      5 C         141.6587  138.9185  165.7429 C.3     1  UNL1        0.0202
      6 C         142.9189  138.8661  166.5547 C.3     1  UNL1        0.0062
      7 C         141.7536  139.6819  167.0306 C.3     1  UNL1        0.0259
      8 C         140.2560  139.3372  165.4154 C.3     1  UNL1        0.0724
      9 C         141.1356  140.5937  168.0488 C.ar    1  UNL1        0.0051
     10 C         139.9646  140.1263  168.8614 C.ar    1  UNL1        0.0002
     11 C         139.3466  141.0381  169.8796 C.ar    1  UNL1        0.0295
     12 C         139.8997  142.4172  170.0852 C.ar    1  UNL1        0.1424
     13 F         139.2817  143.3289  171.1034 F       1  UNL1       -0.2041
     14 C         141.0707  142.8845  169.2726 C.ar    1  UNL1        0.0589
     15 C         141.6887  141.9727  168.2544 C.ar    1  UNL1        0.1384
     16 F         142.8597  142.4400  167.4418 F       1  UNL1       -0.2044
     17 C         138.4443  138.5328  161.9510 C.3     1  UNL1        0.0294
     18 C         137.6337  139.4220  161.0552 C.3     1  UNL1        0.0666
     19 S         138.3180  140.4329  160.1835 S.3     1  UNL1       -0.0756
     20 C         140.3808  143.2596  161.8629 C.ar    1  UNL1        0.2029
     21 N         139.0958  143.9748  161.5673 N.ar    1  UNL1       -0.1250
     22 N         138.1667  143.0030  160.9023 N.ar    1  UNL1       -0.1220
     23 C         138.8774  141.6871  160.7868 C.ar    1  UNL1        0.1933
     24 N         140.2458  141.8456  161.3805 N.ar    1  UNL1       -0.2860
     25 C         141.2950  140.7778  161.4751 C.3     1  UNL1        0.1341
     26 C         140.8455  143.5772  165.0774 C.3     1  UNL1        0.0556
     27 C         141.8023  143.9999  164.0022 C.ar    1  UNL1        0.1001
     28 N         143.1406  144.6427  164.2157 N.ar    1  UNL1       -0.2085
     29 C         143.7541  144.8941  162.8702 C.ar    1  UNL1        0.2849
     30 O         142.7950  144.4065  161.8250 O.2     1  UNL1       -0.4283
     31 C         141.5887  143.8539  162.5247 C.ar    1  UNL1        0.1964
@<TRIPOS>BOND
     1    26    27    1
     2    27    28   ar
     3    28    29   ar
     4    29    30   ar
     5    30    31   ar
     6    31    20    1
     7    20    21   ar
     8    21    22   ar
     9    22    23   ar
    10    23    19    1
    11    19    18    1
    12    18    17    1
    13    17     1    1
    14     1     2    1
    15     2     3    1
    16     3     4    1
    17     5     4    1
    18     5     6    1
    19     6     7    1
    20     7     9    1
    21     9    10   ar
    22    10    11   ar
    23    11    12   ar
    24    12    13    1
    25    12    14   ar
    26    14    15   ar
    27    15    16    1
    28     5     8    1
    29    23    24   ar
    30    24    25    1
    31    31    27   ar
    32    24    20   ar
    33     8     2    1
    34     7     5    1
    35    15     9   ar
@<TRIPOS>MOLECULE
*****
 31 35 0 0 0
SMALL
GASTEIGER

@<TRIPOS>ATOM
      1 C         141.7729  137.6012  163.0382 C.3     1  UNL1        0.0730
      2 N         142.7699  138.7032  163.2424 N.3     1  UNL1       -0.2726
      3 C         144.0181  138.9227  162.4400 C.3     1  UNL1        0.0721
      4 C         144.7133  140.1343  162.9865 C.3     1  UNL1        0.0190
      5 C         143.8948  140.6636  164.1267 C.3     1  UNL1        0.0202
      6 C         144.8008  141.8149  164.4489 C.3     1  UNL1        0.0062
      7 C         143.5526  141.5954  165.2513 C.3     1  UNL1        0.0259
      8 C         142.6937  139.7791  164.2848 C.3     1  UNL1        0.0724
      9 C         142.6343  142.0065  166.3638 C.ar    1  UNL1        0.0051
     10 C         143.1416  142.0585  167.7745 C.ar    1  UNL1        0.0002
     11 C         142.2233  142.4697  168.8870 C.ar    1  UNL1        0.0295
     12 C         140.7978  142.8289  168.5888 C.ar    1  UNL1        0.1424
     13 F         139.8796  143.2401  169.7013 F       1  UNL1       -0.2041
     14 C         140.2906  142.7769  167.1781 C.ar    1  UNL1        0.0589
     15 C         141.2088  142.3658  166.0656 C.ar    1  UNL1        0.1384
     16 F         140.7016  142.3138  164.6550 F       1  UNL1       -0.2044
     17 C         140.5583  137.5169  163.9143 C.3     1  UNL1        0.0294
     18 C         139.1950  137.7401  163.3299 C.3     1  UNL1        0.0666
     19 S         139.0391  138.5529  162.0788 S.3     1  UNL1       -0.0756
     20 C         138.7402  142.4223  162.0150 C.ar    1  UNL1        0.2029
     21 N         137.4113  142.0384  162.5953 N.ar    1  UNL1       -0.1250
     22 N         137.3615  140.5422  162.6898 N.ar    1  UNL1       -0.1220
     23 C         138.6597  140.0014  162.1680 C.ar    1  UNL1        0.1933
     24 N         139.5118  141.1633  161.7509 N.ar    1  UNL1       -0.2860
     25 C         140.8929  141.0807  161.1715 C.3     1  UNL1        0.1341
     26 C         138.9792  144.8230  164.2125 C.3     1  UNL1        0.0556
     27 C         139.3242  144.9233  162.7561 C.ar    1  UNL1        0.1001
     28 N         139.8395  146.1445  162.0541 N.ar    1  UNL1       -0.2085
     29 C         140.0482  145.7959  160.6102 C.ar    1  UNL1        0.2849
     30 O         139.6618  144.3590  160.4198 O.2     1  UNL1       -0.4283
     31 C         139.2143  143.8198  161.7461 C.ar    1  UNL1        0.1964
@<TRIPOS>BOND
     1    26    27    1
     2    27    28   ar
     3    28    29   ar
     4    29    30   ar
     5    30    31   ar
     6    31    20    1
     7    20    21   ar
     8    21    22   ar
     9    22    23   ar
    10    23    19    1
    11    19    18    1
    12    18    17    1
    13    17     1    1
    14     1     2    1
    15     2     3    1
    16     3     4    1
    17     5     4    1
    18     5     6    1
    19     6     7    1
    20     7     9    1
    21     9    10   ar
    22    10    11   ar
    23    11    12   ar
    24    12    13    1
    25    12    14   ar
    26    14    15   ar
    27    15    16    1
    28     5     8    1
    29    23    24   ar
    30    24    25    1
    31    31    27   ar
    32    24    20   ar
    33     8     2    1
    34     7     5    1
    35    15     9   ar
@<TRIPOS>MOLECULE
*****
 31 35 0 0 0
SMALL
GASTEIGER

@<TRIPOS>ATOM
      1 C         143.2452  139.0700  163.5901 C.3     1  UNL1        0.0730
      2 N         141.9802  139.0302  164.3953 N.3     1  UNL1       -0.2726
      3 C         140.7312  138.2800  164.0384 C.3     1  UNL1        0.0721
      4 C         139.7212  138.5197  165.1212 C.3     1  UNL1        0.0190
      5 C         140.3460  139.4180  166.1472 C.3     1  UNL1        0.0202
      6 C         139.1532  139.4723  167.0552 C.3     1  UNL1        0.0062
      7 C         140.4022  140.2225  167.4120 C.3     1  UNL1        0.0259
      8 C         141.7421  139.7335  165.6986 C.3     1  UNL1        0.0724
      9 C         141.1557  141.1200  168.3483 C.ar    1  UNL1        0.0051
     10 C         140.6133  142.4774  168.6853 C.ar    1  UNL1        0.0002
     11 C         141.3669  143.3749  169.6215 C.ar    1  UNL1        0.0295
     12 C         142.6628  142.9151  170.2207 C.ar    1  UNL1        0.1424
     13 F         143.4164  143.8127  171.1569 F       1  UNL1       -0.2041
     14 C         143.2052  141.5578  169.8837 C.ar    1  UNL1        0.0589
     15 C         142.4517  140.6603  168.9475 C.ar    1  UNL1        0.1384
     16 F         142.9941  139.3031  168.6105 F       1  UNL1       -0.2044
     17 C         144.5110  139.5867  164.2072 C.3     1  UNL1        0.0294
     18 C         145.3202  140.6307  163.4965 C.3     1  UNL1        0.0666
     19 S         145.0378  142.0854  163.7290 S.3     1  UNL1       -0.0756
     20 C         141.3017  143.1074  163.9795 C.ar    1  UNL1        0.2029
     21 N         141.7562  143.3214  165.3929 N.ar    1  UNL1       -0.1250
     22 N         143.2110  142.9646  165.4711 N.ar    1  UNL1       -0.1220
     23 C         143.6557  142.5301  164.1060 C.ar    1  UNL1        0.1933
     24 N         142.4757  142.6183  163.1841 N.ar    1  UNL1       -0.2860
     25 C         142.4706  142.2774  161.7234 C.3     1  UNL1        0.1341
     26 C         140.2823  145.7584  162.3724 C.3     1  UNL1        0.0556
     27 C         139.4479  144.5599  162.7151 C.ar    1  UNL1        0.1001
     28 N         137.9984  144.3695  162.3792 N.ar    1  UNL1       -0.2085
     29 C         137.5712  143.0333  162.9103 C.ar    1  UNL1        0.2849
     30 O         138.7566  142.3979  163.5744 O.2     1  UNL1       -0.4283
     31 C         139.9164  143.3414  163.4537 C.ar    1  UNL1        0.1964
@<TRIPOS>BOND
     1    26    27    1
     2    27    28   ar
     3    28    29   ar
     4    29    30   ar
     5    30    31   ar
     6    31    20    1
     7    20    21   ar
     8    21    22   ar
     9    22    23   ar
    10    23    19    1
    11    19    18    1
    12    18    17    1
    13    17     1    1
    14     1     2    1
    15     2     3    1
    16     3     4    1
    17     5     4    1
    18     5     6    1
    19     6     7    1
    20     7     9    1
    21     9    10   ar
    22    10    11   ar
    23    11    12   ar
    24    12    13    1
    25    12    14   ar
    26    14    15   ar
    27    15    16    1
    28     5     8    1
    29    23    24   ar
    30    24    25    1
    31    31    27   ar
    32    24    20   ar
    33     8     2    1
    34     7     5    1
    35    15     9   ar
@<TRIPOS>MOLECULE
*****
 31 35 0 0 0
SMALL
GASTEIGER

@<TRIPOS>ATOM
      1 C         137.3822  142.1625  163.0130 C.3     1  UNL1        0.0730
      2 N         137.9689  140.8087  163.2832 N.3     1  UNL1       -0.2726
      3 C         137.8860  139.6152  162.3784 C.3     1  UNL1        0.0721
      4 C         138.6074  138.4797  163.0417 C.3     1  UNL1        0.0190
      5 C         139.1363  138.9714  164.3565 C.3     1  UNL1        0.0202
      6 C         139.7751  137.6764  164.7627 C.3     1  UNL1        0.0062
      7 C         139.8581  138.8699  165.6675 C.3     1  UNL1        0.0259
      8 C         138.7417  140.4108  164.5058 C.3     1  UNL1        0.0724
      9 C         140.3227  139.5004  166.9468 C.ar    1  UNL1        0.0051
     10 C         139.3209  139.9449  167.9710 C.ar    1  UNL1        0.0002
     11 C         139.7855  140.5754  169.2503 C.ar    1  UNL1        0.0295
     12 C         141.2519  140.7614  169.5054 C.ar    1  UNL1        0.1424
     13 F         141.7165  141.3919  170.7846 F       1  UNL1       -0.2041
     14 C         142.2537  140.3170  168.4812 C.ar    1  UNL1        0.0589
     15 C         141.7891  139.6865  167.2019 C.ar    1  UNL1        0.1384
     16 F         142.7908  139.2421  166.1778 F       1  UNL1       -0.2044
     17 C         137.7705  143.3324  163.8677 C.3     1  UNL1        0.0294
     18 C         138.3586  144.5598  163.2369 C.3     1  UNL1        0.0666
     19 S         139.8444  144.7655  163.2390 S.3     1  UNL1       -0.0756
     20 C         142.0689  141.5963  163.5102 C.ar    1  UNL1        0.2029
     21 N         142.2556  142.1989  164.8711 N.ar    1  UNL1       -0.1250
     22 N         141.4451  143.4594  164.9352 N.ar    1  UNL1       -0.1220
     23 C         140.7573  143.6359  163.6138 C.ar    1  UNL1        0.1933
     24 N         141.1428  142.4845  162.7331 N.ar    1  UNL1       -0.2860
     25 C         140.6831  142.2605  161.3230 C.3     1  UNL1        0.1341
     26 C         145.2468  140.8617  163.6161 C.3     1  UNL1        0.0556
     27 C         144.1584  139.9907  163.0622 C.ar    1  UNL1        0.1001
     28 N         144.3397  138.6290  162.4598 N.ar    1  UNL1       -0.2085
     29 C         142.9910  138.1251  162.0388 C.ar    1  UNL1        0.2849
     30 O         141.9762  139.1753  162.3810 O.2     1  UNL1       -0.4283
     31 C         142.6977  140.3283  163.0135 C.ar    1  UNL1        0.1964
@<TRIPOS>BOND
     1    26    27    1
     2    27    28   ar
     3    28    29   ar
     4    29    30   ar
     5    30    31   ar
     6    31    20    1
     7    20    21   ar
     8    21    22   ar
     9    22    23   ar
    10    23    19    1
    11    19    18    1
    12    18    17    1
    13    17     1    1
    14     1     2    1
    15     2     3    1
    16     3     4    1
    17     5     4    1
    18     5     6    1
    19     6     7    1
    20     7     9    1
    21     9    10   ar
    22    10    11   ar
    23    11    12   ar
    24    12    13    1
    25    12    14   ar
    26    14    15   ar
    27    15    16    1
    28     5     8    1
    29    23    24   ar
    30    24    25    1
    31    31    27   ar
    32    24    20   ar
    33     8     2    1
    34     7     5    1
    35    15     9   ar
@<TRIPOS>MOLECULE
*****
 31 35 0 0 0
SMALL
GASTEIGER

@<TRIPOS>ATOM
      1 C         138.4041  139.5433  166.1837 C.3     1  UNL1        0.0730
      2 N         139.5281  140.1362  166.9808 N.3     1  UNL1       -0.2726
      3 C         139.5619  140.2986  168.4715 C.3     1  UNL1        0.0721
      4 C         140.8703  140.9335  168.8390 C.3     1  UNL1        0.0190
      5 C         141.6451  141.1635  167.5753 C.3     1  UNL1        0.0202
      6 C         142.8438  141.7772  168.2358 C.3     1  UNL1        0.0062
      7 C         142.8100  141.6147  166.7451 C.3     1  UNL1        0.0259
      8 C         140.8155  140.6707  166.4268 C.3     1  UNL1        0.0724
      9 C         143.4630  141.7815  165.4050 C.ar    1  UNL1        0.0051
     10 C         143.4449  143.1173  164.7229 C.ar    1  UNL1        0.0002
     11 C         144.0979  143.2840  163.3828 C.ar    1  UNL1        0.0295
     12 C         144.7690  142.1149  162.7249 C.ar    1  UNL1        0.1424
     13 F         145.4220  142.2816  161.3849 F       1  UNL1       -0.2041
     14 C         144.7871  140.7791  163.4071 C.ar    1  UNL1        0.0589
     15 C         144.1341  140.6124  164.7471 C.ar    1  UNL1        0.1384
     16 F         144.1522  139.2767  165.4292 F       1  UNL1       -0.2044
     17 C         138.4629  138.1062  165.7583 C.3     1  UNL1        0.0294
     18 C         139.1398  137.7314  164.4732 C.3     1  UNL1        0.0666
     19 S         138.8067  138.4656  163.2082 S.3     1  UNL1       -0.0756
     20 C         140.2187  141.9678  162.3104 C.ar    1  UNL1        0.2029
     21 N         141.4258  141.1042  162.0932 N.ar    1  UNL1       -0.1250
     22 N         141.0438  139.6871  162.4031 N.ar    1  UNL1       -0.1220
     23 C         139.6006  139.6750  162.8118 C.ar    1  UNL1        0.1933
     24 N         139.0906  141.0844  162.7545 N.ar    1  UNL1       -0.2860
     25 C         137.6973  141.5321  163.0836 C.3     1  UNL1        0.1341
     26 C         139.9602  144.1998  164.6770 C.3     1  UNL1        0.0556
     27 C         140.0327  144.4798  163.2051 C.ar    1  UNL1        0.1001
     28 N         139.9991  145.8348  162.5626 N.ar    1  UNL1       -0.2085
     29 C         140.0971  145.6463  161.0777 C.ar    1  UNL1        0.2849
     30 O         140.1914  144.1748  160.8025 O.2     1  UNL1       -0.4283
     31 C         140.1515  143.4538  162.1173 C.ar    1  UNL1        0.1964
@<TRIPOS>BOND
     1    26    27    1
     2    27    28   ar
     3    28    29   ar
     4    29    30   ar
     5    30    31   ar
     6    31    20    1
     7    20    21   ar
     8    21    22   ar
     9    22    23   ar
    10    23    19    1
    11    19    18    1
    12    18    17    1
    13    17     1    1
    14     1     2    1
    15     2     3    1
    16     3     4    1
    17     5     4    1
    18     5     6    1
    19     6     7    1
    20     7     9    1
    21     9    10   ar
    22    10    11   ar
    23    11    12   ar
    24    12    13    1
    25    12    14   ar
    26    14    15   ar
    27    15    16    1
    28     5     8    1
    29    23    24   ar
    30    24    25    1
    31    31    27   ar
    32    24    20   ar
    33     8     2    1
    34     7     5    1
    35    15     9   ar
@<TRIPOS>MOLECULE
*****
 31 35 0 0 0
SMALL
GASTEIGER

@<TRIPOS>ATOM
      1 C         144.3967  143.1405  163.5455 C.3     1  UNL1        0.0730
      2 N         144.2277  141.7943  164.1851 N.3     1  UNL1       -0.2726
      3 C         144.8307  140.5078  163.7042 C.3     1  UNL1        0.0721
      4 C         144.4017  139.4166  164.6398 C.3     1  UNL1        0.0190
      5 C         143.5335  140.0287  165.6988 C.3     1  UNL1        0.0202
      6 C         143.2747  138.7538  166.4456 C.3     1  UNL1        0.0062
      7 C         142.6716  140.0403  166.9265 C.3     1  UNL1        0.0259
      8 C         143.4259  141.4982  165.4178 C.3     1  UNL1        0.0724
      9 C         141.8259  140.7898  167.9128 C.ar    1  UNL1        0.0051
     10 C         140.4511  140.2942  168.2511 C.ar    1  UNL1        0.0002
     11 C         139.6053  141.0437  169.2375 C.ar    1  UNL1        0.0295
     12 C         140.1344  142.2887  169.8856 C.ar    1  UNL1        0.1424
     13 F         139.2886  143.0382  170.8720 F       1  UNL1       -0.2041
     14 C         141.5092  142.7843  169.5473 C.ar    1  UNL1        0.0589
     15 C         142.3549  142.0348  168.5609 C.ar    1  UNL1        0.1384
     16 F         143.7296  142.5303  168.2226 F       1  UNL1       -0.2044
     17 C         143.6832  143.4572  162.2647 C.3     1  UNL1        0.0294
     18 C         142.5608  144.4524  162.2575 C.3     1  UNL1        0.0666
     19 S         141.2542  144.1140  162.9117 S.3     1  UNL1       -0.0756
     20 C         139.8927  140.6022  163.8495 C.ar    1  UNL1        0.2029
     21 N         140.3602  140.3660  162.4439 N.ar    1  UNL1       -0.1250
     22 N         140.9271  141.6528  161.9215 N.ar    1  UNL1       -0.1220
     23 C         140.8100  142.6843  163.0043 C.ar    1  UNL1        0.1933
     24 N         140.1707  142.0350  164.1958 N.ar    1  UNL1       -0.2860
     25 C         139.8633  142.7015  165.5040 C.3     1  UNL1        0.1341
     26 C         140.7491  137.4631  164.0995 C.3     1  UNL1        0.0556
     27 C         139.6522  138.1415  164.8655 C.ar    1  UNL1        0.1001
     28 N         138.7563  137.4961  165.8808 N.ar    1  UNL1       -0.2085
     29 C         137.8090  138.5401  166.3934 C.ar    1  UNL1        0.2849
     30 O         138.1194  139.8307  165.6949 O.2     1  UNL1       -0.4283
     31 C         139.2586  139.5844  164.7506 C.ar    1  UNL1        0.1964
@<TRIPOS>BOND
     1    26    27    1
     2    27    28   ar
     3    28    29   ar
     4    29    30   ar
     5    30    31   ar
     6    31    20    1
     7    20    21   ar
     8    21    22   ar
     9    22    23   ar
    10    23    19    1
    11    19    18    1
    12    18    17    1
    13    17     1    1
    14     1     2    1
    15     2     3    1
    16     3     4    1
    17     5     4    1
    18     5     6    1
    19     6     7    1
    20     7     9    1
    21     9    10   ar
    22    10    11   ar
    23    11    12   ar
    24    12    13    1
    25    12    14   ar
    26    14    15   ar
    27    15    16    1
    28     5     8    1
    29    23    24   ar
    30    24    25    1
    31    31    27   ar
    32    24    20   ar
    33     8     2    1
    34     7     5    1
    35    15     9   ar
@<TRIPOS>MOLECULE
*****
 31 35 0 0 0
SMALL
GASTEIGER

@<TRIPOS>ATOM
      1 C         139.1627  144.6553  164.0140 C.3     1  UNL1        0.0730
      2 N         140.6558  144.5159  164.0492 N.3     1  UNL1       -0.2726
      3 C         141.6324  145.2737  163.1995 C.3     1  UNL1        0.0721
      4 C         143.0146  144.8202  163.5655 C.3     1  UNL1        0.0190
      5 C         142.8923  143.7822  164.6413 C.3     1  UNL1        0.0202
      6 C         144.3644  143.5350  164.7888 C.3     1  UNL1        0.0062
      7 C         143.3878  142.7772  165.6386 C.3     1  UNL1        0.0259
      8 C         141.4344  143.5941  164.9403 C.3     1  UNL1        0.0724
      9 C         143.1100  141.7594  166.7049 C.ar    1  UNL1        0.0051
     10 C         143.1082  142.1670  168.1484 C.ar    1  UNL1        0.0002
     11 C         142.8304  141.1492  169.2147 C.ar    1  UNL1        0.0295
     12 C         142.5545  139.7239  168.8375 C.ar    1  UNL1        0.1424
     13 F         142.2768  138.7062  169.9038 F       1  UNL1       -0.2041
     14 C         142.5564  139.3164  167.3939 C.ar    1  UNL1        0.0589
     15 C         142.8341  140.3341  166.3276 C.ar    1  UNL1        0.1384
     16 F         142.8359  139.9266  164.8841 F       1  UNL1       -0.2044
     17 C         138.3997  144.2442  162.7898 C.3     1  UNL1        0.0294
     18 C         137.6253  142.9595  162.7848 C.3     1  UNL1        0.0666
     19 S         138.1954  141.7376  163.4419 S.3     1  UNL1       -0.0756
     20 C         139.9801  139.1579  161.1559 C.ar    1  UNL1        0.2029
     21 N         138.7091  138.4293  161.4781 N.ar    1  UNL1       -0.1250
     22 N         137.8859  139.3070  162.3737 N.ar    1  UNL1       -0.1220
     23 C         138.6481  140.5781  162.6050 C.ar    1  UNL1        0.1933
     24 N         139.9423  140.4860  161.8524 N.ar    1  UNL1       -0.2860
     25 C         141.0112  141.5373  161.8046 C.3     1  UNL1        0.1341
     26 C         142.8703  138.0564  162.1966 C.3     1  UNL1        0.0556
     27 C         142.4217  138.1417  160.7677 C.ar    1  UNL1        0.1001
     28 N         143.2229  137.7358  159.5664 N.ar    1  UNL1       -0.2085
     29 C         142.3896  137.9912  158.3455 C.ar    1  UNL1        0.2849
     30 O         141.0734  138.5550  158.7924 O.2     1  UNL1       -0.4283
     31 C         141.0933  138.6481  160.2894 C.ar    1  UNL1        0.1964
@<TRIPOS>BOND
     1    26    27    1
     2    27    28   ar
     3    28    29   ar
     4    29    30   ar
     5    30    31   ar
     6    31    20    1
     7    20    21   ar
     8    21    22   ar
     9    22    23   ar
    10    23    19    1
    11    19    18    1
    12    18    17    1
    13    17     1    1
    14     1     2    1
    15     2     3    1
    16     3     4    1
    17     5     4    1
    18     5     6    1
    19     6     7    1
    20     7     9    1
    21     9    10   ar
    22    10    11   ar
    23    11    12   ar
    24    12    13    1
    25    12    14   ar
    26    14    15   ar
    27    15    16    1
    28     5     8    1
    29    23    24   ar
    30    24    25    1
    31    31    27   ar
    32    24    20   ar
    33     8     2    1
    34     7     5    1
    35    15     9   ar
@<TRIPOS>MOLECULE
*****
 31 35 0 0 0
SMALL
GASTEIGER

@<TRIPOS>ATOM
      1 C         137.9232  143.9838  164.1778 C.3     1  UNL1        0.0730
      2 N         138.0098  142.4863  164.1646 N.3     1  UNL1       -0.2726
      3 C         137.4405  141.5795  163.1142 C.3     1  UNL1        0.0721
      4 C         137.7597  140.1656  163.5000 C.3     1  UNL1        0.0190
      5 C         138.5264  140.1985  164.7888 C.3     1  UNL1        0.0202
      6 C         138.6926  138.7128  164.9105 C.3     1  UNL1        0.0062
      7 C         139.2620  139.6196  165.9609 C.3     1  UNL1        0.0259
      8 C         138.6810  141.6329  165.1996 C.3     1  UNL1        0.0724
      9 C         140.0154  139.8089  167.2441 C.ar    1  UNL1        0.0051
     10 C         139.2695  140.0424  168.5244 C.ar    1  UNL1        0.0002
     11 C         140.0229  140.2317  169.8075 C.ar    1  UNL1        0.0295
     12 C         141.5222  140.1876  169.8104 C.ar    1  UNL1        0.1424
     13 F         142.2756  140.3770  171.0935 F       1  UNL1       -0.2041
     14 C         142.2681  139.9542  168.5301 C.ar    1  UNL1        0.0589
     15 C         141.5147  139.7649  167.2469 C.ar    1  UNL1        0.1384
     16 F         142.2606  139.5315  165.9667 F       1  UNL1       -0.2044
     17 C         139.0509  144.7953  164.7435 C.3     1  UNL1        0.0294
     18 C         140.4712  144.4174  164.4433 C.3     1  UNL1        0.0666
     19 S         141.2152  145.1120  163.3415 S.3     1  UNL1       -0.0756
     20 C         143.3867  142.7865  161.1183 C.ar    1  UNL1        0.2029
     21 N         144.4276  143.7152  161.6699 N.ar    1  UNL1       -0.1250
     22 N         143.7409  144.6993  162.5698 N.ar    1  UNL1       -0.1220
     23 C         142.2755  144.3789  162.5744 C.ar    1  UNL1        0.1933
     24 N         142.0565  143.1968  161.6774 N.ar    1  UNL1       -0.2860
     25 C         140.7389  142.5402  161.3899 C.3     1  UNL1        0.1341
     26 C         143.7924  139.6573  161.9506 C.3     1  UNL1        0.0556
     27 C         143.8192  140.2093  160.5562 C.ar    1  UNL1        0.1001
     28 N         144.0371  139.4200  159.2994 N.ar    1  UNL1       -0.2085
     29 C         143.9853  140.3705  158.1401 C.ar    1  UNL1        0.2849
     30 O         143.7354  141.7473  158.6804 O.2     1  UNL1       -0.4283
     31 C         143.6327  141.6477  160.1736 C.ar    1  UNL1        0.1964
@<TRIPOS>BOND
     1    26    27    1
     2    27    28   ar
     3    28    29   ar
     4    29    30   ar
     5    30    31   ar
     6    31    20    1
     7    20    21   ar
     8    21    22   ar
     9    22    23   ar
    10    23    19    1
    11    19    18    1
    12    18    17    1
    13    17     1    1
    14     1     2    1
    15     2     3    1
    16     3     4    1
    17     5     4    1
    18     5     6    1
    19     6     7    1
    20     7     9    1
    21     9    10   ar
    22    10    11   ar
    23    11    12   ar
    24    12    13    1
    25    12    14   ar
    26    14    15   ar
    27    15    16    1
    28     5     8    1
    29    23    24   ar
    30    24    25    1
    31    31    27   ar
    32    24    20   ar
    33     8     2    1
    34     7     5    1
    35    15     9   ar
