@<TRIPOS>MOLECULE
*****
 22 24 0 0 0
SMALL
GASTEIGER

@<TRIPOS>ATOM
      1 C         138.9656  139.6206  166.4077 C.ar    1  UNL1        0.0232
      2 C         139.8306  139.8987  167.6012 C.ar    1  UNL1        0.0781
      3 N         140.3160  141.3145  167.5019 N.ar    1  UNL1       -0.3051
      4 C         139.7509  141.9114  166.2472 C.ar    1  UNL1        0.0638
      5 C         139.8885  143.2730  165.6331 C.ar    1  UNL1        0.0184
      6 C         139.1915  143.5876  164.3427 C.ar    1  UNL1        0.0129
      7 C         138.3568  142.5406  163.6664 C.ar    1  UNL1        0.0578
      8 CL        137.6598  142.8553  162.3760 Cl      1  UNL1       -0.0822
      9 C         138.2192  141.1791  164.2805 C.ar    1  UNL1        0.0126
     10 C         138.9163  140.8645  165.5709 C.ar    1  UNL1        0.0167
     11 C         141.2096  142.0112  168.4849 C.ar    1  UNL1        0.0642
     12 C         140.6535  143.0824  169.3757 C.ar    1  UNL1        0.0198
     13 C         141.5471  143.7790  170.3587 C.ar    1  UNL1        0.0311
     14 C         142.9967  143.4046  170.4508 C.ar    1  UNL1        0.1402
     15 F         143.8903  144.1013  171.4337 F       1  UNL1       -0.2042
     16 C         143.5527  142.3335  169.5600 C.ar    1  UNL1        0.0311
     17 C         142.6591  141.6368  168.5770 C.ar    1  UNL1        0.0198
     18 C         138.2716  138.3258  166.1043 C.3     1  UNL1        0.1342
     19 O         137.1133  137.8803  166.9468 O.3     1  UNL1       -0.3800
     20 H         136.7829  137.0296  166.6182 H       1  UNL1        0.2108
     21 C         140.2007  137.3597  164.6568 C.3     1  UNL1        0.0029
     22 C         138.7360  137.4765  164.9584 C.3     1  UNL1        0.0339
@<TRIPOS>BOND
     1    21    22    1
     2    22    18    1
     3    18    19    1
     4    18     1    1
     5     1     2   ar
     6     2     3   ar
     7     3    11    1
     8    11    12   ar
     9    12    13   ar
    10    13    14   ar
    11    14    15    1
    12    14    16   ar
    13    16    17   ar
    14     3     4   ar
    15     4     5   ar
    16     5     6   ar
    17     6     7   ar
    18     7     8    1
    19     7     9   ar
    20     9    10   ar
    21    10     1   ar
    22    17    11   ar
    23    10     4   ar
    24    19    20    1
@<TRIPOS>MOLECULE
*****
 22 24 0 0 0
SMALL
GASTEIGER

@<TRIPOS>ATOM
      1 C         138.7277  139.7347  166.2329 C.ar    1  UNL1        0.0232
      2 C         138.6053  140.6445  165.0466 C.ar    1  UNL1        0.0781
      3 N         139.3152  141.9257  165.3699 N.ar    1  UNL1       -0.3051
      4 C         139.8764  141.8078  166.7560 C.ar    1  UNL1        0.0638
      5 C         140.6710  142.7584  167.6014 C.ar    1  UNL1        0.0184
      6 C         141.1026  142.3549  168.9801 C.ar    1  UNL1        0.0129
      7 C         140.7395  141.0008  169.5134 C.ar    1  UNL1        0.0578
      8 CL        141.1711  140.5973  170.8922 Cl      1  UNL1       -0.0822
      9 C         139.9449  140.0501  168.6681 C.ar    1  UNL1        0.0126
     10 C         139.5133  140.4536  167.2894 C.ar    1  UNL1        0.0167
     11 C         139.4418  143.1160  164.4659 C.ar    1  UNL1        0.0642
     12 C         138.2346  143.6460  163.7503 C.ar    1  UNL1        0.0198
     13 C         138.3612  144.8363  162.8463 C.ar    1  UNL1        0.0311
     14 C         139.6948  145.4966  162.6578 C.ar    1  UNL1        0.1402
     15 F         139.8213  146.6869  161.7538 F       1  UNL1       -0.2042
     16 C         140.9018  144.9666  163.3734 C.ar    1  UNL1        0.0311
     17 C         140.7753  143.7763  164.2775 C.ar    1  UNL1        0.0198
     18 C         138.1637  138.3492  166.3433 C.3     1  UNL1        0.1342
     19 O         137.1030  138.0501  167.3608 O.3     1  UNL1       -0.3800
     20 H         136.8507  137.1155  167.2997 H       1  UNL1        0.2108
     21 C         139.9976  137.3950  164.7697 C.3     1  UNL1        0.0029
     22 C         138.6603  137.2627  165.4361 C.3     1  UNL1        0.0339
@<TRIPOS>BOND
     1    21    22    1
     2    22    18    1
     3    18    19    1
     4    18     1    1
     5     1     2   ar
     6     2     3   ar
     7     3    11    1
     8    11    12   ar
     9    12    13   ar
    10    13    14   ar
    11    14    15    1
    12    14    16   ar
    13    16    17   ar
    14     3     4   ar
    15     4     5   ar
    16     5     6   ar
    17     6     7   ar
    18     7     8    1
    19     7     9   ar
    20     9    10   ar
    21    10     1   ar
    22    17    11   ar
    23    10     4   ar
    24    19    20    1
@<TRIPOS>MOLECULE
*****
 22 24 0 0 0
SMALL
GASTEIGER

@<TRIPOS>ATOM
      1 C         140.9910  141.2530  169.0602 C.ar    1  UNL1        0.0232
      2 C         142.2333  141.7014  168.3491 C.ar    1  UNL1        0.0781
      3 N         142.2143  141.1151  166.9686 N.ar    1  UNL1       -0.3051
      4 C         140.9603  140.3043  166.8265 C.ar    1  UNL1        0.0638
      5 C         140.4093  139.4995  165.6870 C.ar    1  UNL1        0.0184
      6 C         139.1021  138.7799  165.8402 C.ar    1  UNL1        0.0129
      7 C         138.3461  138.8651  167.1329 C.ar    1  UNL1        0.0578
      8 CL        137.0388  138.1455  167.2860 Cl      1  UNL1       -0.0822
      9 C         138.8971  139.6700  168.2724 C.ar    1  UNL1        0.0126
     10 C         140.2043  140.3896  168.1192 C.ar    1  UNL1        0.0167
     11 C         143.2649  141.3060  165.9151 C.ar    1  UNL1        0.0642
     12 C         143.8414  140.1161  165.2065 C.ar    1  UNL1        0.0198
     13 C         144.8920  140.3070  164.1530 C.ar    1  UNL1        0.0311
     14 C         145.3662  141.6877  163.8081 C.ar    1  UNL1        0.1402
     15 F         146.4168  141.8785  162.7547 F       1  UNL1       -0.2042
     16 C         144.7897  142.8774  164.5167 C.ar    1  UNL1        0.0311
     17 C         143.7391  142.6865  165.5702 C.ar    1  UNL1        0.0198
     18 C         140.6034  141.6060  170.4656 C.3     1  UNL1        0.1342
     19 O         140.9911  140.7041  171.5996 O.3     1  UNL1       -0.3800
     20 H         140.6654  141.0758  172.4343 H       1  UNL1        0.2108
     21 C         140.2053  144.1394  170.0487 C.3     1  UNL1        0.0029
     22 C         139.8280  142.8612  170.7370 C.3     1  UNL1        0.0339
@<TRIPOS>BOND
     1    21    22    1
     2    22    18    1
     3    18    19    1
     4    18     1    1
     5     1     2   ar
     6     2     3   ar
     7     3    11    1
     8    11    12   ar
     9    12    13   ar
    10    13    14   ar
    11    14    15    1
    12    14    16   ar
    13    16    17   ar
    14     3     4   ar
    15     4     5   ar
    16     5     6   ar
    17     6     7   ar
    18     7     8    1
    19     7     9   ar
    20     9    10   ar
    21    10     1   ar
    22    17    11   ar
    23    10     4   ar
    24    19    20    1
@<TRIPOS>MOLECULE
*****
 22 24 0 0 0
SMALL
GASTEIGER

@<TRIPOS>ATOM
      1 C         143.0140  143.2051  164.3369 C.ar    1  UNL1        0.0232
      2 C         142.7753  142.3708  165.5604 C.ar    1  UNL1        0.0781
      3 N         141.3434  142.5482  165.9703 N.ar    1  UNL1       -0.3051
      4 C         140.6971  143.4922  165.0001 C.ar    1  UNL1        0.0638
      5 C         139.3018  144.0346  164.9055 C.ar    1  UNL1        0.0184
      6 C         138.9391  144.9829  163.8014 C.ar    1  UNL1        0.0129
      7 C         139.9716  145.3889  162.7919 C.ar    1  UNL1        0.0578
      8 CL        139.6088  146.3373  161.6878 Cl      1  UNL1       -0.0822
      9 C         141.3669  144.8465  162.8866 C.ar    1  UNL1        0.0126
     10 C         141.7296  143.8982  163.9906 C.ar    1  UNL1        0.0167
     11 C         140.6750  141.8962  167.1442 C.ar    1  UNL1        0.0642
     12 C         140.6614  142.5843  168.4771 C.ar    1  UNL1        0.0198
     13 C         139.9930  141.9323  169.6510 C.ar    1  UNL1        0.0311
     14 C         139.3382  140.5921  169.4921 C.ar    1  UNL1        0.1402
     15 F         138.6698  139.9401  170.6661 F       1  UNL1       -0.2042
     16 C         139.3518  139.9041  168.1593 C.ar    1  UNL1        0.0311
     17 C         140.0202  140.5561  166.9854 C.ar    1  UNL1        0.0198
     18 C         144.3097  143.3253  163.5907 C.3     1  UNL1        0.1342
     19 O         144.4811  144.3944  162.5528 O.3     1  UNL1       -0.3800
     20 H         145.3698  144.3331  162.1691 H       1  UNL1        0.2108
     21 C         145.3485  140.9494  163.4275 C.3     1  UNL1        0.0029
     22 C         145.4341  142.3762  163.8825 C.3     1  UNL1        0.0339
@<TRIPOS>BOND
     1    21    22    1
     2    22    18    1
     3    18    19    1
     4    18     1    1
     5     1     2   ar
     6     2     3   ar
     7     3    11    1
     8    11    12   ar
     9    12    13   ar
    10    13    14   ar
    11    14    15    1
    12    14    16   ar
    13    16    17   ar
    14     3     4   ar
    15     4     5   ar
    16     5     6   ar
    17     6     7   ar
    18     7     8    1
    19     7     9   ar
    20     9    10   ar
    21    10     1   ar
    22    17    11   ar
    23    10     4   ar
    24    19    20    1
@<TRIPOS>MOLECULE
*****
 22 24 0 0 0
SMALL
GASTEIGER

@<TRIPOS>ATOM
      1 C         143.9996  141.3782  164.1320 C.ar    1  UNL1        0.0232
      2 C         143.5432  141.5660  165.5485 C.ar    1  UNL1        0.0781
      3 N         142.5922  140.4544  165.8802 N.ar    1  UNL1       -0.3051
      4 C         142.4609  139.5796  164.6688 C.ar    1  UNL1        0.0638
      5 C         141.6616  138.3370  164.4100 C.ar    1  UNL1        0.0184
      6 C         141.7322  137.6653  163.0707 C.ar    1  UNL1        0.0129
      7 C         142.6021  138.2363  161.9902 C.ar    1  UNL1        0.0578
      8 CL        142.6726  137.5645  160.6508 Cl      1  UNL1       -0.0822
      9 C         143.4013  139.4789  162.2490 C.ar    1  UNL1        0.0126
     10 C         143.3307  140.1506  163.5883 C.ar    1  UNL1        0.0167
     11 C         141.8949  140.2529  167.1930 C.ar    1  UNL1        0.0642
     12 C         142.6670  139.7741  168.3866 C.ar    1  UNL1        0.0198
     13 C         141.9698  139.5726  169.6993 C.ar    1  UNL1        0.0311
     14 C         140.5005  139.8499  169.8185 C.ar    1  UNL1        0.1402
     15 F         139.8032  139.6484  171.1312 F       1  UNL1       -0.2042
     16 C         139.7284  140.3287  168.6249 C.ar    1  UNL1        0.0311
     17 C         140.4257  140.5302  167.3122 C.ar    1  UNL1        0.0198
     18 C         144.9568  142.2627  163.3896 C.3     1  UNL1        0.1342
     19 O         146.3981  141.8674  163.2615 O.3     1  UNL1       -0.3800
     20 H         146.8753  142.5441  162.7563 H       1  UNL1        0.2108
     21 C         143.7108  144.5323  163.6058 C.3     1  UNL1        0.0029
     22 C         144.4728  143.5427  162.7751 C.3     1  UNL1        0.0339
@<TRIPOS>BOND
     1    21    22    1
     2    22    18    1
     3    18    19    1
     4    18     1    1
     5     1     2   ar
     6     2     3   ar
     7     3    11    1
     8    11    12   ar
     9    12    13   ar
    10    13    14   ar
    11    14    15    1
    12    14    16   ar
    13    16    17   ar
    14     3     4   ar
    15     4     5   ar
    16     5     6   ar
    17     6     7   ar
    18     7     8    1
    19     7     9   ar
    20     9    10   ar
    21    10     1   ar
    22    17    11   ar
    23    10     4   ar
    24    19    20    1
@<TRIPOS>MOLECULE
*****
 22 24 0 0 0
SMALL
GASTEIGER

@<TRIPOS>ATOM
      1 C         141.0507  141.7700  168.4629 C.ar    1  UNL1        0.0232
      2 C         140.4611  142.8960  167.6664 C.ar    1  UNL1        0.0781
      3 N         140.8528  142.7035  166.2314 N.ar    1  UNL1       -0.3051
      4 C         141.6845  141.4584  166.1409 C.ar    1  UNL1        0.0638
      5 C         142.3463  140.7756  164.9809 C.ar    1  UNL1        0.0184
      6 C         143.1303  139.5158  165.2001 C.ar    1  UNL1        0.0129
      7 C         143.2526  138.9388  166.5793 C.ar    1  UNL1        0.0578
      8 CL        144.0368  137.6789  166.7984 Cl      1  UNL1       -0.0822
      9 C         142.5909  139.6217  167.7393 C.ar    1  UNL1        0.0126
     10 C         141.8068  140.8815  167.5201 C.ar    1  UNL1        0.0167
     11 C         140.4785  143.5987  165.0875 C.ar    1  UNL1        0.0642
     12 C         141.5478  144.2978  164.3012 C.ar    1  UNL1        0.0198
     13 C         141.1735  145.1931  163.1574 C.ar    1  UNL1        0.0311
     14 C         139.7301  145.3894  162.7998 C.ar    1  UNL1        0.1402
     15 F         139.3558  146.2846  161.6559 F       1  UNL1       -0.2042
     16 C         138.6609  144.6904  163.5860 C.ar    1  UNL1        0.0311
     17 C         139.0352  143.7951  164.7299 C.ar    1  UNL1        0.0198
     18 C         140.9091  141.5679  169.9425 C.3     1  UNL1        0.1342
     19 O         141.5670  142.5206  170.8960 O.3     1  UNL1       -0.3800
     20 H         141.3774  142.2483  171.8075 H       1  UNL1        0.2108
     21 C         138.6827  140.2323  170.0420 C.3     1  UNL1        0.0029
     22 C         140.1094  140.4128  170.4686 C.3     1  UNL1        0.0339
@<TRIPOS>BOND
     1    21    22    1
     2    22    18    1
     3    18    19    1
     4    18     1    1
     5     1     2   ar
     6     2     3   ar
     7     3    11    1
     8    11    12   ar
     9    12    13   ar
    10    13    14   ar
    11    14    15    1
    12    14    16   ar
    13    16    17   ar
    14     3     4   ar
    15     4     5   ar
    16     5     6   ar
    17     6     7   ar
    18     7     8    1
    19     7     9   ar
    20     9    10   ar
    21    10     1   ar
    22    17    11   ar
    23    10     4   ar
    24    19    20    1
@<TRIPOS>MOLECULE
*****
 22 24 0 0 0
SMALL
GASTEIGER

@<TRIPOS>ATOM
      1 C         139.3367  142.8399  163.7263 C.ar    1  UNL1        0.0232
      2 C         139.9754  143.4701  164.9284 C.ar    1  UNL1        0.0781
      3 N         140.3525  142.3744  165.8808 N.ar    1  UNL1       -0.3051
      4 C         139.9468  141.0670  165.2674 C.ar    1  UNL1        0.0638
      5 C         140.0680  139.6517  165.7494 C.ar    1  UNL1        0.0184
      6 C         139.5614  138.5242  164.8997 C.ar    1  UNL1        0.0129
      7 C         138.9336  138.8119  163.5681 C.ar    1  UNL1        0.0578
      8 CL        138.4270  137.6843  162.7184 Cl      1  UNL1       -0.0822
      9 C         138.8125  140.2272  163.0862 C.ar    1  UNL1        0.0126
     10 C         139.3191  141.3547  163.9359 C.ar    1  UNL1        0.0167
     11 C         141.0183  142.5544  167.2129 C.ar    1  UNL1        0.0642
     12 C         140.2571  143.1568  168.3565 C.ar    1  UNL1        0.0198
     13 C         140.9230  143.3368  169.6886 C.ar    1  UNL1        0.0311
     14 C         142.3499  142.9144  169.8770 C.ar    1  UNL1        0.1402
     15 F         143.0157  143.0944  171.2090 F       1  UNL1       -0.2042
     16 C         143.1109  142.3120  168.7334 C.ar    1  UNL1        0.0311
     17 C         142.4451  142.1320  167.4014 C.ar    1  UNL1        0.0198
     18 C         138.8084  143.5672  162.5255 C.3     1  UNL1        0.1342
     19 O         137.3691  143.4173  162.1310 O.3     1  UNL1       -0.3800
     20 H         137.1937  143.9498  161.3395 H       1  UNL1        0.2108
     21 C         139.7895  145.9157  162.0035 C.3     1  UNL1        0.0029
     22 C         139.7196  144.4446  161.7191 C.3     1  UNL1        0.0339
@<TRIPOS>BOND
     1    21    22    1
     2    22    18    1
     3    18    19    1
     4    18     1    1
     5     1     2   ar
     6     2     3   ar
     7     3    11    1
     8    11    12   ar
     9    12    13   ar
    10    13    14   ar
    11    14    15    1
    12    14    16   ar
    13    16    17   ar
    14     3     4   ar
    15     4     5   ar
    16     5     6   ar
    17     6     7   ar
    18     7     8    1
    19     7     9   ar
    20     9    10   ar
    21    10     1   ar
    22    17    11   ar
    23    10     4   ar
    24    19    20    1
@<TRIPOS>MOLECULE
*****
 22 24 0 0 0
SMALL
GASTEIGER

@<TRIPOS>ATOM
      1 C         142.9758  143.4335  163.9081 C.ar    1  UNL1        0.0232
      2 C         143.6054  142.8514  165.1388 C.ar    1  UNL1        0.0781
      3 N         142.5093  142.3136  166.0101 N.ar    1  UNL1       -0.3051
      4 C         141.2022  142.5634  165.3180 C.ar    1  UNL1        0.0638
      5 C         139.7867  142.2500  165.7029 C.ar    1  UNL1        0.0184
      6 C         138.6595  142.6288  164.7886 C.ar    1  UNL1        0.0129
      7 C         138.9478  143.3209  163.4894 C.ar    1  UNL1        0.0578
      8 CL        137.8205  143.6997  162.5751 Cl      1  UNL1       -0.0822
      9 C         140.3633  143.6343  163.1046 C.ar    1  UNL1        0.0126
     10 C         141.4905  143.2555  164.0188 C.ar    1  UNL1        0.0167
     11 C         142.6887  141.6436  167.3402 C.ar    1  UNL1        0.0642
     12 C         142.3255  140.1978  167.5067 C.ar    1  UNL1        0.0198
     13 C         142.5049  139.5278  168.8368 C.ar    1  UNL1        0.0311
     14 C         143.0476  140.3036  170.0002 C.ar    1  UNL1        0.1402
     15 F         143.2270  139.6337  171.3303 F       1  UNL1       -0.2042
     16 C         143.4107  141.7494  169.8336 C.ar    1  UNL1        0.0311
     17 C         143.2313  142.4194  168.5036 C.ar    1  UNL1        0.0198
     18 C         143.7036  144.0801  162.7670 C.3     1  UNL1        0.1342
     19 O         143.9807  145.5540  162.7930 O.3     1  UNL1       -0.3800
     20 H         144.4553  145.8080  161.9861 H       1  UNL1        0.2108
     21 C         144.9144  141.9805  161.8311 C.3     1  UNL1        0.0029
     22 C         144.1543  143.2527  161.5997 C.3     1  UNL1        0.0339
@<TRIPOS>BOND
     1    21    22    1
     2    22    18    1
     3    18    19    1
     4    18     1    1
     5     1     2   ar
     6     2     3   ar
     7     3    11    1
     8    11    12   ar
     9    12    13   ar
    10    13    14   ar
    11    14    15    1
    12    14    16   ar
    13    16    17   ar
    14     3     4   ar
    15     4     5   ar
    16     5     6   ar
    17     6     7   ar
    18     7     8    1
    19     7     9   ar
    20     9    10   ar
    21    10     1   ar
    22    17    11   ar
    23    10     4   ar
    24    19    20    1
@<TRIPOS>MOLECULE
*****
 22 24 0 0 0
SMALL
GASTEIGER

@<TRIPOS>ATOM
      1 C         142.1446  141.6456  167.9607 C.ar    1  UNL1        0.0232
      2 C         143.1295  142.1418  166.9439 C.ar    1  UNL1        0.0781
      3 N         142.6766  141.6732  165.5929 N.ar    1  UNL1       -0.3051
      4 C         141.4118  140.8875  165.7746 C.ar    1  UNL1        0.0638
      5 C         140.5171  140.1854  164.7967 C.ar    1  UNL1        0.0184
      6 C         139.2935  139.4663  165.2821 C.ar    1  UNL1        0.0129
      7 C         138.9647  139.4493  166.7455 C.ar    1  UNL1        0.0578
      8 CL        137.7411  138.7301  167.2309 Cl      1  UNL1       -0.0822
      9 C         139.8594  140.1514  167.7235 C.ar    1  UNL1        0.0126
     10 C         141.0830  140.8705  167.2380 C.ar    1  UNL1        0.0167
     11 C         143.3673  141.9429  164.2889 C.ar    1  UNL1        0.0642
     12 C         143.4835  143.3487  163.7785 C.ar    1  UNL1        0.0198
     13 C         144.1742  143.6185  162.4746 C.ar    1  UNL1        0.0311
     14 C         144.7486  142.4825  161.6810 C.ar    1  UNL1        0.1402
     15 F         145.4392  142.7523  160.3771 F       1  UNL1       -0.2042
     16 C         144.6323  141.0769  162.1914 C.ar    1  UNL1        0.0311
     17 C         143.9417  140.8071  163.4954 C.ar    1  UNL1        0.0198
     18 C         142.2097  141.8830  169.4403 C.3     1  UNL1        0.1342
     19 O         142.6686  140.7874  170.3562 O.3     1  UNL1       -0.3800
     20 H         142.6519  141.1041  171.2729 H       1  UNL1        0.2108
     21 C         140.4397  143.7587  169.7557 C.3     1  UNL1        0.0029
     22 C         141.8160  143.2162  170.0042 C.3     1  UNL1        0.0339
@<TRIPOS>BOND
     1    21    22    1
     2    22    18    1
     3    18    19    1
     4    18     1    1
     5     1     2   ar
     6     2     3   ar
     7     3    11    1
     8    11    12   ar
     9    12    13   ar
    10    13    14   ar
    11    14    15    1
    12    14    16   ar
    13    16    17   ar
    14     3     4   ar
    15     4     5   ar
    16     5     6   ar
    17     6     7   ar
    18     7     8    1
    19     7     9   ar
    20     9    10   ar
    21    10     1   ar
    22    17    11   ar
    23    10     4   ar
    24    19    20    1
