@<TRIPOS>MOLECULE
*****
 35 38 0 0 0
SMALL
GASTEIGER

@<TRIPOS>ATOM
      1 C         139.3407  138.7177  161.2495 C.3     1  UNL1        0.0721
      2 N         142.9670  140.8279  159.6225 N.3     1  UNL1       -0.2691
      3 C         143.1239  139.5423  160.3792 C.3     1  UNL1        0.0724
      4 C         141.9151  138.8390  160.9216 C.3     1  UNL1        0.0188
      5 C         140.5495  139.4211  160.7072 C.3     1  UNL1        0.0188
      6 C         140.3925  140.7067  159.9504 C.3     1  UNL1        0.0188
      7 C         141.6013  141.4101  159.4080 C.3     1  UNL1        0.0724
      8 C         144.1757  141.5313  159.0801 C.3     1  UNL1        0.1003
      9 O         145.7422  141.9976  157.0605 O.co2   1  UNL1       -0.5478
     10 C         144.7650  141.1061  157.7678 C.2     1  UNL1        0.0652
     11 O         144.3771  139.7895  157.1629 O.co2   1  UNL1       -0.5478
     12 C         144.7952  142.6598  159.8500 C.3     1  UNL1        0.0674
     13 C         144.6935  142.6918  161.3462 C.ar    1  UNL1        0.0607
     14 C         143.7363  143.6349  162.0128 C.ar    1  UNL1        0.0148
     15 C         143.6346  143.6669  163.5090 C.ar    1  UNL1        0.0028
     16 C         144.4901  142.7558  164.3386 C.ar    1  UNL1        0.0207
     17 C         145.4472  141.8127  163.6719 C.ar    1  UNL1        0.0984
     18 N         145.5489  141.7807  162.1758 N.ar    1  UNL1       -0.2481
     19 N         139.0136  138.8070  162.7107 N.3     1  UNL1       -0.2724
     20 C         138.4632  140.0812  163.2796 C.3     1  UNL1        0.0758
     21 C         138.1361  140.1705  164.7407 C.3     1  UNL1        0.0609
     22 C         138.3595  138.9857  165.6331 C.3     1  UNL1        0.1687
     23 C         138.9099  137.7115  165.0643 C.3     1  UNL1        0.0609
     24 C         139.2370  137.6222  163.6030 C.3     1  UNL1        0.0758
     25 O         138.0324  139.0750  167.0942 O.3     1  UNL1       -0.4790
     26 C         139.0167  139.6859  168.0472 C.ar    1  UNL1        0.1392
     27 C         138.6057  139.9899  169.4573 C.ar    1  UNL1        0.0367
     28 C         139.5899  140.6008  170.4103 C.ar    1  UNL1        0.0021
     29 C         140.9852  140.9077  169.9530 C.ar    1  UNL1        0.0177
     30 C         141.3962  140.6037  168.5429 C.ar    1  UNL1        0.0590
     31 CL        142.7914  140.9106  168.0856 Cl      1  UNL1       -0.0824
     32 C         140.4119  139.9928  167.5899 C.ar    1  UNL1        0.0480
     33 C         141.9694  141.5186  170.9060 C.3     1  UNL1        0.1644
     34 O         142.3721  140.7769  172.1460 O.3     1  UNL1       -0.3772
     35 H         141.6063  140.6927  172.7355 H       1  UNL1        0.2109
@<TRIPOS>UNITY_ATOM_ATTR
9 1
charge -1
@<TRIPOS>BOND
     1     9    10   ar
     2    10    11   ar
     3    10     8    1
     4     8    12    1
     5    12    13    1
     6    13    14   ar
     7    14    15   ar
     8    15    16   ar
     9    16    17   ar
    10    17    18   ar
    11     8     2    1
    12     2     3    1
    13     3     4    1
    14     4     5    1
    15     5     1    1
    16     1    19    1
    17    19    20    1
    18    20    21    1
    19    21    22    1
    20    22    25    1
    21    25    26    1
    22    26    27   ar
    23    27    28   ar
    24    28    29   ar
    25    29    33    1
    26    33    34    1
    27    29    30   ar
    28    30    31    1
    29    30    32   ar
    30    22    23    1
    31    23    24    1
    32     5     6    1
    33     6     7    1
    34    18    13   ar
    35     7     2    1
    36    24    19    1
    37    32    26   ar
    38    34    35    1
@<TRIPOS>MOLECULE
*****
 35 38 0 0 0
SMALL
GASTEIGER

@<TRIPOS>ATOM
      1 C         139.9047  139.6502  160.7890 C.3     1  UNL1        0.0721
      2 N         141.7777  137.4260  157.3547 N.3     1  UNL1       -0.2691
      3 C         142.6004  137.7770  158.5588 C.3     1  UNL1        0.0724
      4 C         141.9761  138.5184  159.7036 C.3     1  UNL1        0.0188
      5 C         140.5290  138.9088  159.6442 C.3     1  UNL1        0.0188
      6 C         139.7062  138.5578  158.4401 C.3     1  UNL1        0.0188
      7 C         140.3306  137.8164  157.2953 C.3     1  UNL1        0.0724
      8 C         142.4021  136.6845  156.2100 C.3     1  UNL1        0.1003
      9 O         142.9307  138.2281  154.1881 O.co2   1  UNL1       -0.5478
     10 C         143.4007  137.3720  155.3266 C.2     1  UNL1        0.0652
     11 O         144.8691  137.2034  155.5818 O.co2   1  UNL1       -0.5478
     12 C         142.0279  135.2557  155.9486 C.3     1  UNL1        0.0674
     13 C         142.9854  134.1542  156.2951 C.ar    1  UNL1        0.0607
     14 C         143.2227  133.0342  155.3259 C.ar    1  UNL1        0.0148
     15 C         144.1801  131.9328  155.6725 C.ar    1  UNL1        0.0028
     16 C         144.9002  131.9513  156.9882 C.ar    1  UNL1        0.0207
     17 C         144.6629  133.0713  157.9574 C.ar    1  UNL1        0.0984
     18 N         143.7055  134.1727  157.6108 N.ar    1  UNL1       -0.2481
     19 N         140.4589  139.4956  162.1742 N.3     1  UNL1       -0.2724
     20 C         141.3052  140.5819  162.7691 C.3     1  UNL1        0.0758
     21 C         141.8594  140.4272  164.1543 C.3     1  UNL1        0.0609
     22 C         141.5674  139.1862  164.9447 C.3     1  UNL1        0.1687
     23 C         140.7212  138.0999  164.3499 C.3     1  UNL1        0.0609
     24 C         140.1669  138.2546  162.9646 C.3     1  UNL1        0.0758
     25 O         142.1216  139.0315  166.3299 O.3     1  UNL1       -0.4790
     26 C         141.6482  139.9322  167.4321 C.ar    1  UNL1        0.1392
     27 C         140.2000  139.9418  167.8229 C.ar    1  UNL1        0.0367
     28 C         139.7266  140.8424  168.9250 C.ar    1  UNL1        0.0021
     29 C         140.7013  141.7335  169.6364 C.ar    1  UNL1        0.0177
     30 C         142.1495  141.7239  169.2455 C.ar    1  UNL1        0.0590
     31 CL        143.1242  142.6150  169.9568 Cl      1  UNL1       -0.0824
     32 C         142.6229  140.8233  168.1433 C.ar    1  UNL1        0.0480
     33 C         140.2279  142.6341  170.7385 C.3     1  UNL1        0.1644
     34 O         140.4079  142.2256  172.1705 O.3     1  UNL1       -0.3772
     35 H         139.8638  141.4439  172.3546 H       1  UNL1        0.2109
@<TRIPOS>UNITY_ATOM_ATTR
9 1
charge -1
@<TRIPOS>BOND
     1     9    10   ar
     2    10    11   ar
     3    10     8    1
     4     8    12    1
     5    12    13    1
     6    13    14   ar
     7    14    15   ar
     8    15    16   ar
     9    16    17   ar
    10    17    18   ar
    11     8     2    1
    12     2     3    1
    13     3     4    1
    14     4     5    1
    15     5     1    1
    16     1    19    1
    17    19    20    1
    18    20    21    1
    19    21    22    1
    20    22    25    1
    21    25    26    1
    22    26    27   ar
    23    27    28   ar
    24    28    29   ar
    25    29    33    1
    26    33    34    1
    27    29    30   ar
    28    30    31    1
    29    30    32   ar
    30    22    23    1
    31    23    24    1
    32     5     6    1
    33     6     7    1
    34    18    13   ar
    35     7     2    1
    36    24    19    1
    37    32    26   ar
    38    34    35    1
@<TRIPOS>MOLECULE
*****
 35 38 0 0 0
SMALL
GASTEIGER

@<TRIPOS>ATOM
      1 C         138.2590  139.2286  161.2813 C.3     1  UNL1        0.0721
      2 N         140.4594  142.3499  158.9010 N.3     1  UNL1       -0.2691
      3 C         141.2240  141.2819  159.6254 C.3     1  UNL1        0.0724
      4 C         140.4906  140.2415  160.4188 C.3     1  UNL1        0.0188
      5 C         138.9924  140.2690  160.4879 C.3     1  UNL1        0.0188
      6 C         138.2277  141.3370  159.7635 C.3     1  UNL1        0.0188
      7 C         138.9612  142.3774  158.9701 C.3     1  UNL1        0.0724
      8 C         141.1929  143.3903  158.1076 C.3     1  UNL1        0.1003
      9 O         140.5674  142.6505  155.6968 O.co2   1  UNL1       -0.5478
     10 C         141.5942  143.1076  156.6901 C.2     1  UNL1        0.0652
     11 O         143.0224  143.2821  156.2660 O.co2   1  UNL1       -0.5478
     12 C         141.5250  144.7133  158.7315 C.3     1  UNL1        0.0674
     13 C         141.4206  144.8890  160.2176 C.ar    1  UNL1        0.0607
     14 C         140.2121  145.5498  160.8116 C.ar    1  UNL1        0.0148
     15 C         140.1078  145.7255  162.2976 C.ar    1  UNL1        0.0028
     16 C         141.2120  145.2404  163.1895 C.ar    1  UNL1        0.0207
     17 C         142.4204  144.5796  162.5955 C.ar    1  UNL1        0.0984
     18 N         142.5247  144.4039  161.1095 N.ar    1  UNL1       -0.2481
     19 N         138.3527  139.2229  162.7784 N.3     1  UNL1       -0.2724
     20 C         137.9798  140.4491  163.5579 C.3     1  UNL1        0.0758
     21 C         138.0735  140.4434  165.0549 C.3     1  UNL1        0.0609
     22 C         138.5400  139.2116  165.7725 C.3     1  UNL1        0.1687
     23 C         138.9129  137.9855  164.9931 C.3     1  UNL1        0.0609
     24 C         138.8192  137.9911  163.4960 C.3     1  UNL1        0.0758
     25 O         138.6337  139.2060  167.2695 O.3     1  UNL1       -0.4790
     26 C         139.6105  140.1086  167.9634 C.ar    1  UNL1        0.1392
     27 C         139.3869  140.4964  169.3950 C.ar    1  UNL1        0.0367
     28 C         140.3636  141.3990  170.0888 C.ar    1  UNL1        0.0021
     29 C         141.5640  141.9137  169.3510 C.ar    1  UNL1        0.0177
     30 C         141.7875  141.5259  167.9193 C.ar    1  UNL1        0.0590
     31 CL        142.9878  142.0406  167.1815 Cl      1  UNL1       -0.0824
     32 C         140.8107  140.6233  167.2255 C.ar    1  UNL1        0.0480
     33 C         142.5407  142.8163  170.0448 C.3     1  UNL1        0.1644
     34 O         143.9042  142.3077  170.4083 O.3     1  UNL1       -0.3772
     35 H         143.8215  141.6119  171.0790 H       1  UNL1        0.2109
@<TRIPOS>UNITY_ATOM_ATTR
9 1
charge -1
@<TRIPOS>BOND
     1     9    10   ar
     2    10    11   ar
     3    10     8    1
     4     8    12    1
     5    12    13    1
     6    13    14   ar
     7    14    15   ar
     8    15    16   ar
     9    16    17   ar
    10    17    18   ar
    11     8     2    1
    12     2     3    1
    13     3     4    1
    14     4     5    1
    15     5     1    1
    16     1    19    1
    17    19    20    1
    18    20    21    1
    19    21    22    1
    20    22    25    1
    21    25    26    1
    22    26    27   ar
    23    27    28   ar
    24    28    29   ar
    25    29    33    1
    26    33    34    1
    27    29    30   ar
    28    30    31    1
    29    30    32   ar
    30    22    23    1
    31    23    24    1
    32     5     6    1
    33     6     7    1
    34    18    13   ar
    35     7     2    1
    36    24    19    1
    37    32    26   ar
    38    34    35    1
@<TRIPOS>MOLECULE
*****
 35 38 0 0 0
SMALL
GASTEIGER

@<TRIPOS>ATOM
      1 C         144.3429  141.9771  164.8258 C.3     1  UNL1        0.0721
      2 N         140.8645  140.4633  167.2463 N.3     1  UNL1       -0.2691
      3 C         141.9271  139.5112  166.7836 C.3     1  UNL1        0.0724
      4 C         143.0866  140.0158  165.9768 C.3     1  UNL1        0.0188
      5 C         143.1835  141.4725  165.6327 C.3     1  UNL1        0.0188
      6 C         142.1208  142.4247  166.0953 C.3     1  UNL1        0.0188
      7 C         140.9613  141.9201  166.9022 C.3     1  UNL1        0.0724
      8 C         139.7050  139.9587  168.0531 C.3     1  UNL1        0.1003
      9 O         138.4707  139.9947  170.3391 O.co2   1  UNL1       -0.5478
     10 C         139.7465  140.0287  169.5510 C.2     1  UNL1        0.0652
     11 O         141.0639  140.1327  170.2607 O.co2   1  UNL1       -0.5478
     12 C         138.5040  139.3841  167.3622 C.3     1  UNL1        0.0674
     13 C         138.5219  139.1748  165.8770 C.ar    1  UNL1        0.0607
     14 C         138.0790  140.2753  164.9590 C.ar    1  UNL1        0.0148
     15 C         138.0969  140.0659  163.4739 C.ar    1  UNL1        0.0028
     16 C         138.5577  138.7560  162.9066 C.ar    1  UNL1        0.0207
     17 C         139.0005  137.6554  163.8245 C.ar    1  UNL1        0.0984
     18 N         138.9826  137.8648  165.3097 N.ar    1  UNL1       -0.2481
     19 N         144.1704  142.2659  163.3641 N.3     1  UNL1       -0.2724
     20 C         143.5564  143.5615  162.9229 C.3     1  UNL1        0.0758
     21 C         143.3838  143.8503  161.4612 C.3     1  UNL1        0.0609
     22 C         143.8252  142.8436  160.4405 C.3     1  UNL1        0.1687
     23 C         144.4391  141.5481  160.8816 C.3     1  UNL1        0.0609
     24 C         144.6117  141.2592  162.3434 C.3     1  UNL1        0.0758
     25 O         143.6526  143.1324  158.9788 O.3     1  UNL1       -0.4790
     26 C         144.0148  142.0919  157.9608 C.ar    1  UNL1        0.1392
     27 C         143.0724  140.9599  157.6773 C.ar    1  UNL1        0.0367
     28 C         143.4346  139.9195  156.6593 C.ar    1  UNL1        0.0021
     29 C         144.7393  140.0110  155.9248 C.ar    1  UNL1        0.0177
     30 C         145.6818  141.1430  156.2084 C.ar    1  UNL1        0.0590
     31 CL        146.9864  141.2346  155.4739 Cl      1  UNL1       -0.0824
     32 C         145.3195  142.1835  157.2264 C.ar    1  UNL1        0.0480
     33 C         145.1015  138.9706  154.9069 C.3     1  UNL1        0.1644
     34 O         145.0361  137.5156  155.2656 O.3     1  UNL1       -0.3772
     35 H         145.7025  137.3192  155.9426 H       1  UNL1        0.2109
@<TRIPOS>UNITY_ATOM_ATTR
9 1
charge -1
@<TRIPOS>BOND
     1     9    10   ar
     2    10    11   ar
     3    10     8    1
     4     8    12    1
     5    12    13    1
     6    13    14   ar
     7    14    15   ar
     8    15    16   ar
     9    16    17   ar
    10    17    18   ar
    11     8     2    1
    12     2     3    1
    13     3     4    1
    14     4     5    1
    15     5     1    1
    16     1    19    1
    17    19    20    1
    18    20    21    1
    19    21    22    1
    20    22    25    1
    21    25    26    1
    22    26    27   ar
    23    27    28   ar
    24    28    29   ar
    25    29    33    1
    26    33    34    1
    27    29    30   ar
    28    30    31    1
    29    30    32   ar
    30    22    23    1
    31    23    24    1
    32     5     6    1
    33     6     7    1
    34    18    13   ar
    35     7     2    1
    36    24    19    1
    37    32    26   ar
    38    34    35    1
@<TRIPOS>MOLECULE
*****
 35 38 0 0 0
SMALL
GASTEIGER

@<TRIPOS>ATOM
      1 C         143.0930  139.3384  161.2515 C.3     1  UNL1        0.0721
      2 N         141.4662  143.2262  159.6741 N.3     1  UNL1       -0.2691
      3 C         142.9134  143.1174  160.0529 C.3     1  UNL1        0.0724
      4 C         143.4557  141.8215  160.5788 C.3     1  UNL1        0.0188
      5 C         142.5507  140.6343  160.7257 C.3     1  UNL1        0.0188
      6 C         141.1034  140.7431  160.3468 C.3     1  UNL1        0.0188
      7 C         140.5611  142.0391  159.8210 C.3     1  UNL1        0.0724
      8 C         140.9240  144.5222  159.1482 C.3     1  UNL1        0.1003
      9 O         142.2241  145.0953  156.9731 O.co2   1  UNL1       -0.5478
     10 C         140.9319  144.7952  157.6733 C.2     1  UNL1        0.0652
     11 O         139.6478  144.7680  156.8985 O.co2   1  UNL1       -0.5478
     12 C         140.3737  145.5451  160.0973 C.3     1  UNL1        0.0674
     13 C         140.0578  145.1618  161.5127 C.ar    1  UNL1        0.0607
     14 C         141.1292  145.2154  162.5612 C.ar    1  UNL1        0.0148
     15 C         140.8133  144.8321  163.9765 C.ar    1  UNL1        0.0028
     16 C         139.4260  144.3951  164.3434 C.ar    1  UNL1        0.0207
     17 C         138.3547  144.3415  163.2949 C.ar    1  UNL1        0.0984
     18 N         138.6706  144.7248  161.8796 N.ar    1  UNL1       -0.2481
     19 N         143.1253  139.0834  162.7293 N.3     1  UNL1       -0.2724
     20 C         144.2938  139.5507  163.5456 C.3     1  UNL1        0.0758
     21 C         144.3261  139.2957  165.0234 C.3     1  UNL1        0.0609
     22 C         143.1900  138.5735  165.6849 C.3     1  UNL1        0.1687
     23 C         142.0216  138.1062  164.8687 C.3     1  UNL1        0.0609
     24 C         141.9892  138.3612  163.3908 C.3     1  UNL1        0.0758
     25 O         143.2224  138.3185  167.1627 O.3     1  UNL1       -0.4790
     26 C         142.6866  139.3478  168.1133 C.ar    1  UNL1        0.1392
     27 C         142.8657  139.1686  169.5918 C.ar    1  UNL1        0.0367
     28 C         142.3301  140.1978  170.5424 C.ar    1  UNL1        0.0021
     29 C         141.6152  141.4064  170.0145 C.ar    1  UNL1        0.0177
     30 C         141.4362  141.5856  168.5361 C.ar    1  UNL1        0.0590
     31 CL        140.7214  142.7941  168.0082 Cl      1  UNL1       -0.0824
     32 C         141.9719  140.5563  167.5855 C.ar    1  UNL1        0.0480
     33 C         141.0796  142.4356  170.9651 C.3     1  UNL1        0.1644
     34 O         140.4179  142.0060  172.2409 O.3     1  UNL1       -0.3772
     35 H         139.5969  141.5318  172.0356 H       1  UNL1        0.2109
@<TRIPOS>UNITY_ATOM_ATTR
9 1
charge -1
@<TRIPOS>BOND
     1     9    10   ar
     2    10    11   ar
     3    10     8    1
     4     8    12    1
     5    12    13    1
     6    13    14   ar
     7    14    15   ar
     8    15    16   ar
     9    16    17   ar
    10    17    18   ar
    11     8     2    1
    12     2     3    1
    13     3     4    1
    14     4     5    1
    15     5     1    1
    16     1    19    1
    17    19    20    1
    18    20    21    1
    19    21    22    1
    20    22    25    1
    21    25    26    1
    22    26    27   ar
    23    27    28   ar
    24    28    29   ar
    25    29    33    1
    26    33    34    1
    27    29    30   ar
    28    30    31    1
    29    30    32   ar
    30    22    23    1
    31    23    24    1
    32     5     6    1
    33     6     7    1
    34    18    13   ar
    35     7     2    1
    36    24    19    1
    37    32    26   ar
    38    34    35    1
@<TRIPOS>MOLECULE
*****
 35 38 0 0 0
SMALL
GASTEIGER

@<TRIPOS>ATOM
      1 C         140.5836  139.8417  159.7631 C.3     1  UNL1        0.0721
      2 N         142.0754  139.3603  163.9812 N.3     1  UNL1       -0.2691
      3 C         141.4145  138.2087  163.2834 C.3     1  UNL1        0.0724
      4 C         140.9172  138.3692  161.8774 C.3     1  UNL1        0.0188
      5 C         141.0809  139.6812  161.1691 C.3     1  UNL1        0.0188
      6 C         141.7419  140.8329  161.8669 C.3     1  UNL1        0.0188
      7 C         142.2391  140.6725  163.2730 C.3     1  UNL1        0.0724
      8 C         142.5727  139.1998  165.3873 C.3     1  UNL1        0.1003
      9 O         144.2215  137.7547  166.7812 O.co2   1  UNL1       -0.5478
     10 C         143.9611  138.6906  165.6382 C.2     1  UNL1        0.0652
     11 O         145.0891  139.1172  164.7463 O.co2   1  UNL1       -0.5478
     12 C         141.6816  139.5486  166.5423 C.3     1  UNL1        0.0674
     13 C         142.2392  140.2850  167.7242 C.ar    1  UNL1        0.0607
     14 C         142.7413  141.6894  167.5642 C.ar    1  UNL1        0.0148
     15 C         143.2989  142.4257  168.7460 C.ar    1  UNL1        0.0028
     16 C         143.3545  141.7577  170.0879 C.ar    1  UNL1        0.0207
     17 C         142.8525  140.3533  170.2480 C.ar    1  UNL1        0.0984
     18 N         142.2948  139.6170  169.0661 N.ar    1  UNL1       -0.2481
     19 N         140.9616  138.8377  158.7147 N.3     1  UNL1       -0.2724
     20 C         142.3937  138.4197  158.5582 C.3     1  UNL1        0.0758
     21 C         142.7716  137.4157  157.5098 C.3     1  UNL1        0.0609
     22 C         141.7175  136.8296  156.6180 C.3     1  UNL1        0.1687
     23 C         140.2855  137.2476  156.7745 C.3     1  UNL1        0.0609
     24 C         139.9075  138.2517  157.8229 C.3     1  UNL1        0.0758
     25 O         142.0954  135.8256  155.5696 O.3     1  UNL1       -0.4790
     26 C         142.5030  134.4390  155.9714 C.ar    1  UNL1        0.1392
     27 C         141.7121  133.2570  155.4945 C.ar    1  UNL1        0.0367
     28 C         142.1196  131.8705  155.8962 C.ar    1  UNL1        0.0021
     29 C         143.3181  131.6659  156.7748 C.ar    1  UNL1        0.0177
     30 C         144.1090  132.8479  157.2517 C.ar    1  UNL1        0.0590
     31 CL        145.3074  132.6433  158.1302 Cl      1  UNL1       -0.0824
     32 C         143.7014  134.2345  156.8499 C.ar    1  UNL1        0.0480
     33 C         143.7256  130.2794  157.1765 C.3     1  UNL1        0.1644
     34 O         143.3389  129.7446  158.5235 O.3     1  UNL1       -0.3772
     35 H         143.7904  130.2532  159.2151 H       1  UNL1        0.2109
@<TRIPOS>UNITY_ATOM_ATTR
9 1
charge -1
@<TRIPOS>BOND
     1     9    10   ar
     2    10    11   ar
     3    10     8    1
     4     8    12    1
     5    12    13    1
     6    13    14   ar
     7    14    15   ar
     8    15    16   ar
     9    16    17   ar
    10    17    18   ar
    11     8     2    1
    12     2     3    1
    13     3     4    1
    14     4     5    1
    15     5     1    1
    16     1    19    1
    17    19    20    1
    18    20    21    1
    19    21    22    1
    20    22    25    1
    21    25    26    1
    22    26    27   ar
    23    27    28   ar
    24    28    29   ar
    25    29    33    1
    26    33    34    1
    27    29    30   ar
    28    30    31    1
    29    30    32   ar
    30    22    23    1
    31    23    24    1
    32     5     6    1
    33     6     7    1
    34    18    13   ar
    35     7     2    1
    36    24    19    1
    37    32    26   ar
    38    34    35    1
@<TRIPOS>MOLECULE
*****
 35 38 0 0 0
SMALL
GASTEIGER

@<TRIPOS>ATOM
      1 C         138.2840  144.0330  162.8729 C.3     1  UNL1        0.0721
      2 N         138.5415  140.1042  165.0520 N.3     1  UNL1       -0.2691
      3 C         137.6764  140.2305  163.8332 C.3     1  UNL1        0.0724
      4 C         137.5905  141.5401  163.1068 C.3     1  UNL1        0.0188
      5 C         138.3699  142.7234  163.5993 C.3     1  UNL1        0.0188
      6 C         139.2351  142.5971  164.8181 C.3     1  UNL1        0.0188
      7 C         139.3209  141.2875  165.5444 C.3     1  UNL1        0.0724
      8 C         138.6274  138.7946  165.7783 C.3     1  UNL1        0.1003
      9 O         136.8305  137.7696  167.3501 O.co2   1  UNL1       -0.5478
     10 C         138.0246  138.6539  167.1447 C.2     1  UNL1        0.0652
     11 O         138.6158  139.3974  168.3055 O.co2   1  UNL1       -0.5478
     12 C         139.3160  137.6258  165.1384 C.3     1  UNL1        0.0674
     13 C         140.5357  137.8447  164.2930 C.ar    1  UNL1        0.0607
     14 C         140.4964  137.5363  162.8256 C.ar    1  UNL1        0.0148
     15 C         141.7161  137.7552  161.9804 C.ar    1  UNL1        0.0028
     16 C         142.9750  138.2825  162.6025 C.ar    1  UNL1        0.0207
     17 C         143.0143  138.5908  164.0699 C.ar    1  UNL1        0.0984
     18 N         141.7947  138.3719  164.9152 N.ar    1  UNL1       -0.2481
     19 N         139.0263  144.2257  161.5838 N.3     1  UNL1       -0.2724
     20 C         139.9057  145.4265  161.3970 C.3     1  UNL1        0.0758
     21 C         140.6480  145.6192  160.1079 C.3     1  UNL1        0.0609
     22 C         140.5110  144.6112  159.0056 C.3     1  UNL1        0.1687
     23 C         139.6316  143.4105  159.1923 C.3     1  UNL1        0.0609
     24 C         138.8892  143.2177  160.4815 C.3     1  UNL1        0.0758
     25 O         141.2532  144.8039  157.7165 O.3     1  UNL1       -0.4790
     26 C         142.4247  143.9268  157.3872 C.ar    1  UNL1        0.1392
     27 C         143.3018  143.4032  158.4857 C.ar    1  UNL1        0.0367
     28 C         144.4732  142.5261  158.1565 C.ar    1  UNL1        0.0021
     29 C         144.7677  142.1726  156.7287 C.ar    1  UNL1        0.0177
     30 C         143.8907  142.6963  155.6302 C.ar    1  UNL1        0.0590
     31 CL        144.1851  142.3429  154.2025 Cl      1  UNL1       -0.0824
     32 C         142.7192  143.5734  155.9595 C.ar    1  UNL1        0.0480
     33 C         145.9391  141.2956  156.3995 C.3     1  UNL1        0.1644
     34 O         147.3298  141.8566  156.4359 O.3     1  UNL1       -0.3772
     35 H         147.4270  142.5253  155.7399 H       1  UNL1        0.2109
@<TRIPOS>UNITY_ATOM_ATTR
9 1
charge -1
@<TRIPOS>BOND
     1     9    10   ar
     2    10    11   ar
     3    10     8    1
     4     8    12    1
     5    12    13    1
     6    13    14   ar
     7    14    15   ar
     8    15    16   ar
     9    16    17   ar
    10    17    18   ar
    11     8     2    1
    12     2     3    1
    13     3     4    1
    14     4     5    1
    15     5     1    1
    16     1    19    1
    17    19    20    1
    18    20    21    1
    19    21    22    1
    20    22    25    1
    21    25    26    1
    22    26    27   ar
    23    27    28   ar
    24    28    29   ar
    25    29    33    1
    26    33    34    1
    27    29    30   ar
    28    30    31    1
    29    30    32   ar
    30    22    23    1
    31    23    24    1
    32     5     6    1
    33     6     7    1
    34    18    13   ar
    35     7     2    1
    36    24    19    1
    37    32    26   ar
    38    34    35    1
@<TRIPOS>MOLECULE
*****
 35 38 0 0 0
SMALL
GASTEIGER

@<TRIPOS>ATOM
      1 C         144.0489  142.3537  164.5893 C.3     1  UNL1        0.0721
      2 N         140.7366  140.6452  167.1111 N.3     1  UNL1       -0.2691
      3 C         141.9057  139.7875  166.7274 C.3     1  UNL1        0.0724
      4 C         143.0098  140.3570  165.8868 C.3     1  UNL1        0.0188
      5 C         142.9448  141.7842  165.4299 C.3     1  UNL1        0.0188
      6 C         141.7756  142.6420  165.8137 C.3     1  UNL1        0.0188
      7 C         140.6715  142.0726  166.6543 C.3     1  UNL1        0.0724
      8 C         139.6324  140.0758  167.9517 C.3     1  UNL1        0.1003
      9 O         140.8450  140.8655  170.1095 O.co2   1  UNL1       -0.5478
     10 C         139.6361  140.2857  169.4370 C.2     1  UNL1        0.0652
     11 O         138.4308  139.9158  170.2497 O.co2   1  UNL1       -0.5478
     12 C         138.5247  139.2964  167.3071 C.3     1  UNL1        0.0674
     13 C         138.5022  139.1165  165.8180 C.ar    1  UNL1        0.0607
     14 C         138.9104  137.8053  165.2147 C.ar    1  UNL1        0.0148
     15 C         138.8879  137.6255  163.7257 C.ar    1  UNL1        0.0028
     16 C         138.4571  138.7569  162.8401 C.ar    1  UNL1        0.0207
     17 C         138.0488  140.0681  163.4434 C.ar    1  UNL1        0.0984
     18 N         138.0714  140.2479  164.9324 N.ar    1  UNL1       -0.2481
     19 N         143.8962  142.4253  163.0989 N.3     1  UNL1       -0.2724
     20 C         144.5832  141.4178  162.2252 C.3     1  UNL1        0.0758
     21 C         144.4304  141.4894  160.7348 C.3     1  UNL1        0.0609
     22 C         143.5907  142.5685  160.1179 C.3     1  UNL1        0.1687
     23 C         142.9037  143.5759  160.9914 C.3     1  UNL1        0.0609
     24 C         143.0565  143.5043  162.4820 C.3     1  UNL1        0.0758
     25 O         143.4380  142.6401  158.6274 O.3     1  UNL1       -0.4790
     26 C         143.5049  141.3870  157.8055 C.ar    1  UNL1        0.1392
     27 C         144.6234  141.1919  156.8253 C.ar    1  UNL1        0.0367
     28 C         144.6903  139.9389  156.0034 C.ar    1  UNL1        0.0021
     29 C         143.6387  138.8809  156.1618 C.ar    1  UNL1        0.0177
     30 C         142.5202  139.0761  157.1421 C.ar    1  UNL1        0.0590
     31 CL        141.4687  138.0182  157.3005 Cl      1  UNL1       -0.0824
     32 C         142.4533  140.3291  157.9640 C.ar    1  UNL1        0.0480
     33 C         143.7057  137.6280  155.3399 C.3     1  UNL1        0.1644
     34 O         144.9134  136.7419  155.4203 O.3     1  UNL1       -0.3772
     35 H         145.6833  137.2116  155.0631 H       1  UNL1        0.2109
@<TRIPOS>UNITY_ATOM_ATTR
9 1
charge -1
@<TRIPOS>BOND
     1     9    10   ar
     2    10    11   ar
     3    10     8    1
     4     8    12    1
     5    12    13    1
     6    13    14   ar
     7    14    15   ar
     8    15    16   ar
     9    16    17   ar
    10    17    18   ar
    11     8     2    1
    12     2     3    1
    13     3     4    1
    14     4     5    1
    15     5     1    1
    16     1    19    1
    17    19    20    1
    18    20    21    1
    19    21    22    1
    20    22    25    1
    21    25    26    1
    22    26    27   ar
    23    27    28   ar
    24    28    29   ar
    25    29    33    1
    26    33    34    1
    27    29    30   ar
    28    30    31    1
    29    30    32   ar
    30    22    23    1
    31    23    24    1
    32     5     6    1
    33     6     7    1
    34    18    13   ar
    35     7     2    1
    36    24    19    1
    37    32    26   ar
    38    34    35    1
@<TRIPOS>MOLECULE
*****
 35 38 0 0 0
SMALL
GASTEIGER

@<TRIPOS>ATOM
      1 C         137.9232  143.3703  163.0143 C.3     1  UNL1        0.0721
      2 N         139.8417  141.7159  166.7335 N.3     1  UNL1       -0.2691
      3 C         139.1315  140.7974  165.7838 C.3     1  UNL1        0.0724
      4 C         138.4920  141.3489  164.5441 C.3     1  UNL1        0.0188
      5 C         138.5627  142.8188  164.2540 C.3     1  UNL1        0.0188
      6 C         139.2729  143.7374  165.2037 C.3     1  UNL1        0.0188
      7 C         139.9124  143.1860  166.4435 C.3     1  UNL1        0.0724
      8 C         140.4811  141.1645  167.9732 C.3     1  UNL1        0.1003
      9 O         139.6814  141.6387  170.3993 O.co2   1  UNL1       -0.5478
     10 C         139.6334  140.8007  169.1561 C.2     1  UNL1        0.0652
     11 O         138.7378  139.5990  169.0958 O.co2   1  UNL1       -0.5478
     12 C         141.9682  140.9768  168.0301 C.3     1  UNL1        0.0674
     13 C         142.7496  140.7896  166.7634 C.ar    1  UNL1        0.0607
     14 C         142.9568  139.4123  166.2066 C.ar    1  UNL1        0.0148
     15 C         143.7381  139.2252  164.9400 C.ar    1  UNL1        0.0028
     16 C         144.3123  140.4153  164.2301 C.ar    1  UNL1        0.0207
     17 C         144.1051  141.7926  164.7869 C.ar    1  UNL1        0.0984
     18 N         143.3237  141.9798  166.0536 N.ar    1  UNL1       -0.2481
     19 N         138.7731  143.7560  161.8400 N.3     1  UNL1       -0.2724
     20 C         139.5673  145.0281  161.8746 C.3     1  UNL1        0.0758
     21 C         140.4171  145.4138  160.7003 C.3     1  UNL1        0.0609
     22 C         140.4728  144.5275  159.4915 C.3     1  UNL1        0.1687
     23 C         139.6787  143.2555  159.4568 C.3     1  UNL1        0.0609
     24 C         138.8287  142.8697  160.6311 C.3     1  UNL1        0.0758
     25 O         141.3227  144.9132  158.3172 O.3     1  UNL1       -0.4790
     26 C         142.4328  144.0108  157.8662 C.ar    1  UNL1        0.1392
     27 C         143.3211  143.3507  158.8788 C.ar    1  UNL1        0.0367
     28 C         144.4312  142.4484  158.4278 C.ar    1  UNL1        0.0021
     29 C         144.6531  142.2060  156.9642 C.ar    1  UNL1        0.0177
     30 C         143.7648  142.8661  155.9516 C.ar    1  UNL1        0.0590
     31 CL        143.9867  142.6238  154.4881 Cl      1  UNL1       -0.0824
     32 C         142.6547  143.7685  156.4026 C.ar    1  UNL1        0.0480
     33 C         145.7632  141.3037  156.5132 C.3     1  UNL1        0.1644
     34 O         145.5581  139.8180  156.4865 O.3     1  UNL1       -0.3772
     35 H         145.4413  139.4914  157.3923 H       1  UNL1        0.2109
@<TRIPOS>UNITY_ATOM_ATTR
9 1
charge -1
@<TRIPOS>BOND
     1     9    10   ar
     2    10    11   ar
     3    10     8    1
     4     8    12    1
     5    12    13    1
     6    13    14   ar
     7    14    15   ar
     8    15    16   ar
     9    16    17   ar
    10    17    18   ar
    11     8     2    1
    12     2     3    1
    13     3     4    1
    14     4     5    1
    15     5     1    1
    16     1    19    1
    17    19    20    1
    18    20    21    1
    19    21    22    1
    20    22    25    1
    21    25    26    1
    22    26    27   ar
    23    27    28   ar
    24    28    29   ar
    25    29    33    1
    26    33    34    1
    27    29    30   ar
    28    30    31    1
    29    30    32   ar
    30    22    23    1
    31    23    24    1
    32     5     6    1
    33     6     7    1
    34    18    13   ar
    35     7     2    1
    36    24    19    1
    37    32    26   ar
    38    34    35    1
