@<TRIPOS>MOLECULE
*****
 25 29 0 0 0
SMALL
GASTEIGER

@<TRIPOS>ATOM
      1 O         138.0079  139.0911  168.4629 O.2     1  UNL1       -0.2443
      2 C         139.2051  139.8466  167.9670 C.ar    1  UNL1        0.3532
      3 N         139.7791  139.5392  166.6157 N.ar    1  UNL1       -0.2702
      4 C         140.9762  140.2947  166.1197 C.ar    1  UNL1        0.0965
      5 S         141.7562  140.2123  164.8411 S.2     1  UNL1       -0.0742
      6 C         142.8614  141.2243  164.9062 C.ar    1  UNL1        0.0048
      7 C         142.7646  141.9322  166.2251 C.ar    1  UNL1       -0.0153
      8 C         141.5995  141.3577  166.9750 C.ar    1  UNL1        0.0544
      9 C         141.0255  141.6651  168.3263 C.ar    1  UNL1        0.1717
     10 N         141.4225  142.6512  169.3848 N.ar    1  UNL1       -0.2032
     11 C         140.4707  142.5050  170.5349 C.ar    1  UNL1        0.2214
     12 N         139.4854  141.4287  170.1873 N.ar    1  UNL1       -0.1372
     13 N         139.8284  140.9096  168.8223 N.ar    1  UNL1       -0.1606
     14 C         143.7498  143.0085  166.5727 C.3     1  UNL1        0.0267
     15 C         144.8319  143.3769  165.6014 C.3     1  UNL1        0.0050
     16 C         144.9287  142.6690  164.2825 C.3     1  UNL1        0.0055
     17 C         143.9435  141.5927  163.9349 C.3     1  UNL1        0.0327
     18 C         139.1558  138.4762  165.7603 C.3     1  UNL1        0.1378
     19 C         138.6887  138.8073  164.3738 C.ar    1  UNL1        0.0006
     20 C         138.8447  137.8035  163.2702 C.ar    1  UNL1       -0.0015
     21 C         138.3776  138.1346  161.8837 C.ar    1  UNL1        0.0111
     22 C         137.7546  139.4694  161.6009 C.ar    1  UNL1        0.0577
     23 CL        137.2875  139.8005  160.2145 Cl      1  UNL1       -0.0822
     24 C         137.5986  140.4732  162.7046 C.ar    1  UNL1        0.0111
     25 C         138.0657  140.1421  164.0910 C.ar    1  UNL1       -0.0015
@<TRIPOS>BOND
     1     1     2    2
     2     2     3   ar
     3     3    18    1
     4    18    19    1
     5    19    20   ar
     6    20    21   ar
     7    21    22   ar
     8    22    23    1
     9    22    24   ar
    10    24    25   ar
    11     3     4   ar
    12     4     5   ar
    13     5     6   ar
    14     6     7   ar
    15     7     8   ar
    16     8     9   ar
    17     9    10   ar
    18    10    11   ar
    19    11    12   ar
    20    12    13   ar
    21     7    14    1
    22    14    15    1
    23    15    16    1
    24    16    17    1
    25    13     2   ar
    26    25    19   ar
    27     8     4   ar
    28    13     9   ar
    29    17     6    1
@<TRIPOS>MOLECULE
*****
 25 29 0 0 0
SMALL
GASTEIGER

@<TRIPOS>ATOM
      1 O         143.5860  138.2285  167.6678 O.2     1  UNL1       -0.2443
      2 C         142.7005  139.3814  167.2982 C.ar    1  UNL1        0.3532
      3 N         141.8970  139.3342  166.0324 N.ar    1  UNL1       -0.2702
      4 C         141.0115  140.4872  165.6627 C.ar    1  UNL1        0.0965
      5 S         140.1094  140.7235  164.4878 S.2     1  UNL1       -0.0742
      6 C         139.4698  142.0697  164.6578 C.ar    1  UNL1        0.0048
      7 C         139.9767  142.6653  165.9378 C.ar    1  UNL1       -0.0153
      8 C         140.9294  141.6873  166.5588 C.ar    1  UNL1        0.0544
      9 C         141.7329  141.7344  167.8246 C.ar    1  UNL1        0.1717
     10 N         141.8555  142.7756  168.8975 N.ar    1  UNL1       -0.2032
     11 C         142.8167  142.2662  169.9302 C.ar    1  UNL1        0.2214
     12 N         143.2883  140.9101  169.4956 N.ar    1  UNL1       -0.1372
     13 N         142.6184  140.5815  168.1943 N.ar    1  UNL1       -0.1606
     14 C         139.5051  144.0213  166.3724 C.3     1  UNL1        0.0267
     15 C         138.5268  144.7816  165.5270 C.3     1  UNL1        0.0050
     16 C         138.0200  144.1860  164.2471 C.3     1  UNL1        0.0055
     17 C         138.4915  142.8300  163.8124 C.3     1  UNL1        0.0327
     18 C         141.9790  138.1341  165.1363 C.3     1  UNL1        0.1378
     19 C         142.3492  138.3003  163.6922 C.ar    1  UNL1        0.0006
     20 C         143.5881  139.0588  163.3181 C.ar    1  UNL1       -0.0015
     21 C         143.9583  139.2250  161.8740 C.ar    1  UNL1        0.0111
     22 C         143.0898  138.6327  160.8041 C.ar    1  UNL1        0.0577
     23 CL        143.4601  138.7988  159.3600 Cl      1  UNL1       -0.0822
     24 C         141.8510  137.8741  161.1782 C.ar    1  UNL1        0.0111
     25 C         141.4807  137.7080  162.6223 C.ar    1  UNL1       -0.0015
@<TRIPOS>BOND
     1     1     2    2
     2     2     3   ar
     3     3    18    1
     4    18    19    1
     5    19    20   ar
     6    20    21   ar
     7    21    22   ar
     8    22    23    1
     9    22    24   ar
    10    24    25   ar
    11     3     4   ar
    12     4     5   ar
    13     5     6   ar
    14     6     7   ar
    15     7     8   ar
    16     8     9   ar
    17     9    10   ar
    18    10    11   ar
    19    11    12   ar
    20    12    13   ar
    21     7    14    1
    22    14    15    1
    23    15    16    1
    24    16    17    1
    25    13     2   ar
    26    25    19   ar
    27     8     4   ar
    28    13     9   ar
    29    17     6    1
@<TRIPOS>MOLECULE
*****
 25 29 0 0 0
SMALL
GASTEIGER

@<TRIPOS>ATOM
      1 O         138.8955  137.4246  164.6460 O.2     1  UNL1       -0.2443
      2 C         139.1344  138.7539  163.9934 C.ar    1  UNL1        0.3532
      3 N         139.0098  140.0159  164.7945 N.ar    1  UNL1       -0.2702
      4 C         139.2487  141.3452  164.1418 C.ar    1  UNL1        0.0965
      5 S         139.1991  142.7473  164.6725 S.2     1  UNL1       -0.0742
      6 C         139.5321  143.6811  163.5469 C.ar    1  UNL1        0.0048
      7 C         139.7875  142.8561  162.3204 C.ar    1  UNL1       -0.0153
      8 C         139.6123  141.4125  162.6881 C.ar    1  UNL1        0.0544
      9 C         139.7370  140.1504  161.8871 C.ar    1  UNL1        0.1717
     10 N         140.0790  139.9051  160.4472 N.ar    1  UNL1       -0.2032
     11 C         140.0514  138.4243  160.2100 C.ar    1  UNL1        0.2214
     12 N         139.6923  137.7543  161.5032 N.ar    1  UNL1       -0.1372
     13 N         139.4981  138.8211  162.5397 N.ar    1  UNL1       -0.1606
     14 C         140.1465  143.5260  161.0273 C.3     1  UNL1        0.0267
     15 C         140.2501  145.0209  160.9606 C.3     1  UNL1        0.0050
     16 C         139.9947  145.8459  162.1870 C.3     1  UNL1        0.0055
     17 C         139.6357  145.1760  163.4802 C.3     1  UNL1        0.0327
     18 C         138.6462  139.9486  166.2482 C.3     1  UNL1        0.1378
     19 C         139.7242  139.9366  167.2912 C.ar    1  UNL1        0.0006
     20 C         141.1579  139.7630  166.8858 C.ar    1  UNL1       -0.0015
     21 C         142.2360  139.7510  167.9288 C.ar    1  UNL1        0.0111
     22 C         141.8803  139.9126  169.3770 C.ar    1  UNL1        0.0577
     23 CL        142.9583  139.9006  170.4199 Cl      1  UNL1       -0.0822
     24 C         140.4466  140.0862  169.7823 C.ar    1  UNL1        0.0111
     25 C         139.3685  140.0982  168.7393 C.ar    1  UNL1       -0.0015
@<TRIPOS>BOND
     1     1     2    2
     2     2     3   ar
     3     3    18    1
     4    18    19    1
     5    19    20   ar
     6    20    21   ar
     7    21    22   ar
     8    22    23    1
     9    22    24   ar
    10    24    25   ar
    11     3     4   ar
    12     4     5   ar
    13     5     6   ar
    14     6     7   ar
    15     7     8   ar
    16     8     9   ar
    17     9    10   ar
    18    10    11   ar
    19    11    12   ar
    20    12    13   ar
    21     7    14    1
    22    14    15    1
    23    15    16    1
    24    16    17    1
    25    13     2   ar
    26    25    19   ar
    27     8     4   ar
    28    13     9   ar
    29    17     6    1
@<TRIPOS>MOLECULE
*****
 25 29 0 0 0
SMALL
GASTEIGER

@<TRIPOS>ATOM
      1 O         143.2997  144.6237  164.3969 O.2     1  UNL1       -0.2443
      2 C         142.2433  143.7396  163.8032 C.ar    1  UNL1        0.3532
      3 N         142.2921  142.2575  164.0286 N.ar    1  UNL1       -0.2702
      4 C         141.2357  141.3734  163.4349 C.ar    1  UNL1        0.0965
      5 S         141.0239  139.8893  163.4858 S.2     1  UNL1       -0.0742
      6 C         139.7879  139.5701  162.6981 C.ar    1  UNL1        0.0048
      7 C         139.2358  140.8570  162.1604 C.ar    1  UNL1       -0.0153
      8 C         140.1306  141.9714  162.6157 C.ar    1  UNL1        0.0544
      9 C         140.0818  143.4536  162.3903 C.ar    1  UNL1        0.1717
     10 N         139.1218  144.3227  161.6333 N.ar    1  UNL1       -0.2032
     11 C         139.5848  145.7439  161.7591 C.ar    1  UNL1        0.2214
     12 N         140.8310  145.7532  162.5940 N.ar    1  UNL1       -0.1372
     13 N         141.1382  144.3377  162.9841 N.ar    1  UNL1       -0.1606
     14 C         137.9896  140.8477  161.3256 C.3     1  UNL1        0.0267
     15 C         137.2956  139.5516  161.0285 C.3     1  UNL1        0.0050
     16 C         137.8477  138.2647  161.5662 C.3     1  UNL1        0.0055
     17 C         139.0939  138.2740  162.4010 C.3     1  UNL1        0.0327
     18 C         143.3972  141.6594  164.8478 C.3     1  UNL1        0.1378
     19 C         143.1777  141.3647  166.3021 C.ar    1  UNL1        0.0006
     20 C         142.8263  139.9739  166.7407 C.ar    1  UNL1       -0.0015
     21 C         142.6068  139.6792  168.1951 C.ar    1  UNL1        0.0111
     22 C         142.7388  140.7750  169.2107 C.ar    1  UNL1        0.0577
     23 CL        142.5193  140.4803  170.6649 Cl      1  UNL1       -0.0822
     24 C         143.0903  142.1658  168.7720 C.ar    1  UNL1        0.0111
     25 C         143.3097  142.4605  167.3177 C.ar    1  UNL1       -0.0015
@<TRIPOS>BOND
     1     1     2    2
     2     2     3   ar
     3     3    18    1
     4    18    19    1
     5    19    20   ar
     6    20    21   ar
     7    21    22   ar
     8    22    23    1
     9    22    24   ar
    10    24    25   ar
    11     3     4   ar
    12     4     5   ar
    13     5     6   ar
    14     6     7   ar
    15     7     8   ar
    16     8     9   ar
    17     9    10   ar
    18    10    11   ar
    19    11    12   ar
    20    12    13   ar
    21     7    14    1
    22    14    15    1
    23    15    16    1
    24    16    17    1
    25    13     2   ar
    26    25    19   ar
    27     8     4   ar
    28    13     9   ar
    29    17     6    1
@<TRIPOS>MOLECULE
*****
 25 29 0 0 0
SMALL
GASTEIGER

@<TRIPOS>ATOM
      1 O         141.6971  137.3034  164.4709 O.2     1  UNL1       -0.2443
      2 C         141.3700  138.6467  163.8891 C.ar    1  UNL1        0.3532
      3 N         141.8547  139.8950  164.5650 N.ar    1  UNL1       -0.2702
      4 C         141.5276  141.2383  163.9831 C.ar    1  UNL1        0.0965
      5 S         141.8650  142.6319  164.4234 S.2     1  UNL1       -0.0742
      6 C         141.2618  143.5883  163.4378 C.ar    1  UNL1        0.0048
      7 C         140.5517  142.7857  162.3883 C.ar    1  UNL1       -0.0153
      8 C         140.7159  141.3333  162.7253 C.ar    1  UNL1        0.0544
      9 C         140.2313  140.0851  162.0494 C.ar    1  UNL1        0.1717
     10 N         139.4184  139.8669  160.8077 N.ar    1  UNL1       -0.2032
     11 C         139.2430  138.3888  160.6222 C.ar    1  UNL1        0.2214
     12 N         139.9475  137.6933  161.7492 N.ar    1  UNL1       -0.1372
     13 N         140.5583  138.7418  162.6313 N.ar    1  UNL1       -0.1606
     14 C         139.8471  143.4811  161.2613 C.3     1  UNL1        0.0267
     15 C         139.8528  144.9790  161.1839 C.3     1  UNL1        0.0050
     16 C         140.5630  145.7816  162.2334 C.3     1  UNL1        0.0055
     17 C         141.2675  145.0863  163.3603 C.3     1  UNL1        0.0327
     18 C         142.6664  139.7999  165.8228 C.3     1  UNL1        0.1378
     19 C         141.9844  139.8179  167.1588 C.ar    1  UNL1        0.0006
     20 C         142.7396  139.4185  168.3917 C.ar    1  UNL1       -0.0015
     21 C         142.0576  139.4365  169.7277 C.ar    1  UNL1        0.0111
     22 C         140.6205  139.8538  169.8306 C.ar    1  UNL1        0.0577
     23 CL        139.9386  139.8718  171.1665 Cl      1  UNL1       -0.0822
     24 C         139.8654  140.2532  168.5976 C.ar    1  UNL1        0.0111
     25 C         140.5473  140.2352  167.2617 C.ar    1  UNL1       -0.0015
@<TRIPOS>BOND
     1     1     2    2
     2     2     3   ar
     3     3    18    1
     4    18    19    1
     5    19    20   ar
     6    20    21   ar
     7    21    22   ar
     8    22    23    1
     9    22    24   ar
    10    24    25   ar
    11     3     4   ar
    12     4     5   ar
    13     5     6   ar
    14     6     7   ar
    15     7     8   ar
    16     8     9   ar
    17     9    10   ar
    18    10    11   ar
    19    11    12   ar
    20    12    13   ar
    21     7    14    1
    22    14    15    1
    23    15    16    1
    24    16    17    1
    25    13     2   ar
    26    25    19   ar
    27     8     4   ar
    28    13     9   ar
    29    17     6    1
@<TRIPOS>MOLECULE
*****
 25 29 0 0 0
SMALL
GASTEIGER

@<TRIPOS>ATOM
      1 O         139.1210  144.5240  165.3246 O.2     1  UNL1       -0.2443
      2 C         139.9426  143.6486  164.4253 C.ar    1  UNL1        0.3532
      3 N         140.3912  142.2979  164.8990 N.ar    1  UNL1       -0.2702
      4 C         141.2128  141.4225  163.9997 C.ar    1  UNL1        0.0965
      5 S         141.7950  140.0533  164.1902 S.2     1  UNL1       -0.0742
      6 C         142.5279  139.6824  162.9351 C.ar    1  UNL1        0.0048
      7 C         142.3986  140.8224  161.9688 C.ar    1  UNL1       -0.0153
      8 C         141.5859  141.8979  162.6268 C.ar    1  UNL1        0.0544
      9 C         141.1374  143.2486  162.1532 C.ar    1  UNL1        0.1717
     10 N         141.3498  143.9808  160.8613 N.ar    1  UNL1       -0.2032
     11 C         140.6595  145.3087  160.9622 C.ar    1  UNL1        0.2214
     12 N         140.0203  145.3972  162.3164 N.ar    1  UNL1       -0.1372
     13 N         140.3157  144.1240  163.0524 N.ar    1  UNL1       -0.1606
     14 C         143.0377  140.7340  160.6147 C.3     1  UNL1        0.0267
     15 C         143.8060  139.5055  160.2269 C.3     1  UNL1        0.0050
     16 C         143.9353  138.3655  161.1931 C.3     1  UNL1        0.0055
     17 C         143.2962  138.4539  162.5473 C.3     1  UNL1        0.0327
     18 C         140.0181  141.8226  166.2719 C.3     1  UNL1        0.1378
     19 C         140.8443  142.2283  167.4563 C.ar    1  UNL1        0.0006
     20 C         140.2348  143.0585  168.5468 C.ar    1  UNL1       -0.0015
     21 C         141.0611  143.4642  169.7313 C.ar    1  UNL1        0.0111
     22 C         142.4966  143.0396  169.8252 C.ar    1  UNL1        0.0577
     23 CL        143.3228  143.4453  171.0096 Cl      1  UNL1       -0.0822
     24 C         143.1060  142.2094  168.7346 C.ar    1  UNL1        0.0111
     25 C         142.2798  141.8037  167.5502 C.ar    1  UNL1       -0.0015
@<TRIPOS>BOND
     1     1     2    2
     2     2     3   ar
     3     3    18    1
     4    18    19    1
     5    19    20   ar
     6    20    21   ar
     7    21    22   ar
     8    22    23    1
     9    22    24   ar
    10    24    25   ar
    11     3     4   ar
    12     4     5   ar
    13     5     6   ar
    14     6     7   ar
    15     7     8   ar
    16     8     9   ar
    17     9    10   ar
    18    10    11   ar
    19    11    12   ar
    20    12    13   ar
    21     7    14    1
    22    14    15    1
    23    15    16    1
    24    16    17    1
    25    13     2   ar
    26    25    19   ar
    27     8     4   ar
    28    13     9   ar
    29    17     6    1
@<TRIPOS>MOLECULE
*****
 25 29 0 0 0
SMALL
GASTEIGER

@<TRIPOS>ATOM
      1 O         143.5538  142.3666  166.8448 O.2     1  UNL1       -0.2443
      2 C         143.4851  141.8657  165.4325 C.ar    1  UNL1        0.3532
      3 N         143.2215  140.4138  165.1637 N.ar    1  UNL1       -0.2702
      4 C         143.1528  139.9130  163.7514 C.ar    1  UNL1        0.0965
      5 S         142.9101  138.5468  163.1816 S.2     1  UNL1       -0.0742
      6 C         142.9550  138.6536  161.6861 C.ar    1  UNL1        0.0048
      7 C         143.2255  140.0858  161.3316 C.ar    1  UNL1       -0.0153
      8 C         143.3477  140.8641  162.6080 C.ar    1  UNL1        0.0544
      9 C         143.6113  142.3160  162.8769 C.ar    1  UNL1        0.1717
     10 N         143.8419  143.4809  161.9603 N.ar    1  UNL1       -0.2032
     11 C         144.0531  144.7016  162.8060 C.ar    1  UNL1        0.2214
     12 N         143.9530  144.2912  164.2454 N.ar    1  UNL1       -0.1372
     13 N         143.6800  142.8169  164.2891 N.ar    1  UNL1       -0.1606
     14 C         143.3255  140.4961  159.8923 C.3     1  UNL1        0.0267
     15 C         143.1551  139.4743  158.8075 C.3     1  UNL1        0.0050
     16 C         142.8846  138.0421  159.1620 C.3     1  UNL1        0.0055
     17 C         142.7846  137.6317  160.6013 C.3     1  UNL1        0.0327
     18 C         143.0266  139.4627  166.3071 C.3     1  UNL1        0.1378
     19 C         141.8853  139.6598  167.2605 C.ar    1  UNL1        0.0006
     20 C         140.4914  139.8367  166.7353 C.ar    1  UNL1       -0.0015
     21 C         139.3502  140.0338  167.6886 C.ar    1  UNL1        0.0111
     22 C         139.6029  140.0541  169.1670 C.ar    1  UNL1        0.0577
     23 CL        138.4617  140.2512  170.1203 Cl      1  UNL1       -0.0822
     24 C         140.9968  139.8772  169.6921 C.ar    1  UNL1        0.0111
     25 C         142.1380  139.6801  168.7388 C.ar    1  UNL1       -0.0015
@<TRIPOS>BOND
     1     1     2    2
     2     2     3   ar
     3     3    18    1
     4    18    19    1
     5    19    20   ar
     6    20    21   ar
     7    21    22   ar
     8    22    23    1
     9    22    24   ar
    10    24    25   ar
    11     3     4   ar
    12     4     5   ar
    13     5     6   ar
    14     6     7   ar
    15     7     8   ar
    16     8     9   ar
    17     9    10   ar
    18    10    11   ar
    19    11    12   ar
    20    12    13   ar
    21     7    14    1
    22    14    15    1
    23    15    16    1
    24    16    17    1
    25    13     2   ar
    26    25    19   ar
    27     8     4   ar
    28    13     9   ar
    29    17     6    1
@<TRIPOS>MOLECULE
*****
 25 29 0 0 0
SMALL
GASTEIGER

@<TRIPOS>ATOM
      1 O         141.8865  137.5873  164.8277 O.2     1  UNL1       -0.2443
      2 C         141.7094  138.9252  164.1730 C.ar    1  UNL1        0.3532
      3 N         140.7168  139.9048  164.7252 N.ar    1  UNL1       -0.2702
      4 C         140.5396  141.2428  164.0705 C.ar    1  UNL1        0.0965
      5 S         139.6454  142.4046  164.3872 S.2     1  UNL1       -0.0742
      6 C         139.9081  143.4810  163.3760 C.ar    1  UNL1        0.0048
      7 C         140.9648  142.9843  162.4343 C.ar    1  UNL1       -0.0153
      8 C         141.3551  141.6010  162.8636 C.ar    1  UNL1        0.0544
      9 C         142.3477  140.6214  162.3114 C.ar    1  UNL1        0.1717
     10 N         143.2858  140.6935  161.1431 N.ar    1  UNL1       -0.2032
     11 C         144.0427  139.4003  161.0757 C.ar    1  UNL1        0.2214
     12 N         143.5725  138.5287  162.2024 N.ar    1  UNL1       -0.1372
     13 N         142.5248  139.2834  162.9661 N.ar    1  UNL1       -0.1606
     14 C         141.4351  143.8558  161.3077 C.3     1  UNL1        0.0267
     15 C         140.8487  145.2239  161.1227 C.3     1  UNL1        0.0050
     16 C         139.7920  145.7206  162.0644 C.3     1  UNL1        0.0055
     17 C         139.3217  144.8491  163.1910 C.3     1  UNL1        0.0327
     18 C         139.9013  139.5466  165.9321 C.3     1  UNL1        0.1378
     19 C         140.3938  139.9042  167.3032 C.ar    1  UNL1        0.0006
     20 C         141.8615  140.0954  167.5466 C.ar    1  UNL1       -0.0015
     21 C         142.3540  140.4530  168.9176 C.ar    1  UNL1        0.0111
     22 C         141.3789  140.6193  170.0451 C.ar    1  UNL1        0.0577
     23 CL        141.8714  140.9769  171.4161 Cl      1  UNL1       -0.0822
     24 C         139.9112  140.4280  169.8017 C.ar    1  UNL1        0.0111
     25 C         139.4187  140.0705  168.4307 C.ar    1  UNL1       -0.0015
@<TRIPOS>BOND
     1     1     2    2
     2     2     3   ar
     3     3    18    1
     4    18    19    1
     5    19    20   ar
     6    20    21   ar
     7    21    22   ar
     8    22    23    1
     9    22    24   ar
    10    24    25   ar
    11     3     4   ar
    12     4     5   ar
    13     5     6   ar
    14     6     7   ar
    15     7     8   ar
    16     8     9   ar
    17     9    10   ar
    18    10    11   ar
    19    11    12   ar
    20    12    13   ar
    21     7    14    1
    22    14    15    1
    23    15    16    1
    24    16    17    1
    25    13     2   ar
    26    25    19   ar
    27     8     4   ar
    28    13     9   ar
    29    17     6    1
@<TRIPOS>MOLECULE
*****
 25 29 0 0 0
SMALL
GASTEIGER

@<TRIPOS>ATOM
      1 O         144.9943  138.6817  165.1643 O.2     1  UNL1       -0.2443
      2 C         143.9053  139.7129  165.1914 C.ar    1  UNL1        0.3532
      3 N         143.6758  140.5928  163.9985 N.ar    1  UNL1       -0.2702
      4 C         142.5868  141.6240  164.0256 C.ar    1  UNL1        0.0965
      5 S         142.1283  142.6266  163.0085 S.2     1  UNL1       -0.0742
      6 C         140.9855  143.3976  163.5999 C.ar    1  UNL1        0.0048
      7 C         140.7377  142.8715  164.9826 C.ar    1  UNL1       -0.0153
      8 C         141.7273  141.7753  165.2456 C.ar    1  UNL1        0.0544
      9 C         141.9569  140.8955  166.4386 C.ar    1  UNL1        0.1717
     10 N         141.2746  140.8140  167.7720 N.ar    1  UNL1       -0.2032
     11 C         141.9419  139.7325  168.5689 C.ar    1  UNL1        0.2214
     12 N         143.0366  139.1455  167.7281 N.ar    1  UNL1       -0.1372
     13 N         143.0459  139.8642  166.4114 N.ar    1  UNL1       -0.1606
     14 C         139.6430  143.4584  165.8234 C.3     1  UNL1        0.0267
     15 C         138.7961  144.5715  165.2815 C.3     1  UNL1        0.0050
     16 C         139.0439  145.0977  163.8988 C.3     1  UNL1        0.0055
     17 C         140.1386  144.5107  163.0580 C.3     1  UNL1        0.0327
     18 C         144.5352  140.4415  162.7784 C.3     1  UNL1        0.1378
     19 C         144.0103  139.7126  161.5770 C.ar    1  UNL1        0.0006
     20 C         143.8389  140.4383  160.2754 C.ar    1  UNL1       -0.0015
     21 C         143.3140  139.7094  159.0739 C.ar    1  UNL1        0.0111
     22 C         142.9606  138.2551  159.1741 C.ar    1  UNL1        0.0577
     23 CL        142.4358  137.5264  157.9727 Cl      1  UNL1       -0.0822
     24 C         143.1321  137.5296  160.4757 C.ar    1  UNL1        0.0111
     25 C         143.6569  138.2584  161.6771 C.ar    1  UNL1       -0.0015
@<TRIPOS>BOND
     1     1     2    2
     2     2     3   ar
     3     3    18    1
     4    18    19    1
     5    19    20   ar
     6    20    21   ar
     7    21    22   ar
     8    22    23    1
     9    22    24   ar
    10    24    25   ar
    11     3     4   ar
    12     4     5   ar
    13     5     6   ar
    14     6     7   ar
    15     7     8   ar
    16     8     9   ar
    17     9    10   ar
    18    10    11   ar
    19    11    12   ar
    20    12    13   ar
    21     7    14    1
    22    14    15    1
    23    15    16    1
    24    16    17    1
    25    13     2   ar
    26    25    19   ar
    27     8     4   ar
    28    13     9   ar
    29    17     6    1
