@<TRIPOS>MOLECULE
*****
 42 46 0 0 0
SMALL
GASTEIGER

@<TRIPOS>ATOM
      1 C         141.6551  140.9357  166.7280 C.ar    1  UNL1        0.0203
      2 C         142.7435  139.9037  166.7148 C.ar    1  UNL1        0.0310
      3 C         143.4290  139.5530  165.4276 C.ar    1  UNL1        0.1414
      4 F         144.5174  138.5209  165.4144 F       1  UNL1       -0.2041
      5 C         143.0261  140.2343  164.1534 C.ar    1  UNL1        0.0440
      6 C         141.9376  141.2664  164.1665 C.ar    1  UNL1        0.0488
      7 C         141.2521  141.6171  165.4539 C.ar    1  UNL1       -0.0067
      8 C         140.1637  142.6491  165.4670 C.3     1  UNL1        0.0324
      9 C         139.8488  140.4302  168.5257 C.ar    1  UNL1        0.1870
     10 C         139.1634  140.7809  169.8130 C.ar    1  UNL1        0.1629
     11 N         138.0426  139.9246  170.3235 N.pl3   1  UNL1       -0.3401
     12 N         139.5988  141.9879  170.5899 N.ar    1  UNL1       -0.2063
     13 C         140.7196  142.8442  170.0795 C.ar    1  UNL1        0.2002
     14 N         141.4050  142.4935  168.7922 N.ar    1  UNL1       -0.2208
     15 C         140.9696  141.2865  168.0153 C.ar    1  UNL1        0.1194
     16 H         137.7568  139.1324  169.8136 H       1  UNL1        0.1438
     17 H         137.5927  140.1548  171.1684 H       1  UNL1        0.1438
     18 O         139.4135  139.2231  167.7489 O.3     1  UNL1       -0.4693
     19 C         138.6211  139.3896  166.4862 C.3     1  UNL1        0.2252
     20 C         137.9865  140.5582  163.5061 C.2     1  UNL1        0.2492
     21 O         137.3187  141.3174  164.6142 O.2     1  UNL1       -0.2699
     22 N         138.8544  139.3767  163.8234 N.am    1  UNL1       -0.2740
     23 C         139.5830  138.5249  162.8266 C.3     1  UNL1        0.0938
     24 C         140.3250  137.4612  163.5804 C.3     1  UNL1        0.0233
     25 C         140.0550  137.6556  165.0431 C.3     1  UNL1        0.0254
     26 C         139.1461  138.8395  165.1932 C.3     1  UNL1        0.1192
     27 C         138.0651  142.3967  161.6720 C.2     1  UNL1        0.0048
     28 C         137.7864  140.9807  162.0808 C.2     1  UNL1        0.0579
     29 N         141.5347  141.9477  162.8924 N.am    1  UNL1       -0.2805
     30 C         142.2160  143.2163  162.4724 C.2     1  UNL1        0.2517
     31 O         143.3003  143.8035  163.3265 O.2     1  UNL1       -0.2697
     32 H         140.8230  141.5623  162.3319 H       1  UNL1        0.1552
     33 C         141.8130  143.8977  161.1983 C.ar    1  UNL1        0.0810
     34 C         142.5187  143.5687  159.9162 C.ar    1  UNL1        0.0065
     35 C         142.1157  144.2501  158.6422 C.ar    1  UNL1       -0.0040
     36 C         141.0071  145.2605  158.6502 C.ar    1  UNL1       -0.0203
     37 C         140.3014  145.5895  159.9322 C.ar    1  UNL1        0.0255
     38 C         140.7044  144.9081  161.2063 C.ar    1  UNL1        0.1441
     39 F         139.9987  145.2371  162.4885 F       1  UNL1       -0.2040
     40 C         140.6042  145.9419  157.3760 C.3     1  UNL1        0.0224
     41 C         140.8583  146.2473  155.9296 C.3     1  UNL1        0.0047
     42 C         139.6521  146.8167  156.6156 C.3     1  UNL1        0.0047
@<TRIPOS>BOND
     1    27    28    2
     2    28    20    1
     3    20    21    2
     4    20    22   am
     5    22    23    1
     6    23    24    1
     7    24    25    1
     8    25    26    1
     9    26    19    1
    10    19    18    1
    11    18     9    1
    12     9    10   ar
    13    10    11    1
    14    10    12   ar
    15    12    13   ar
    16    13    14   ar
    17    14    15   ar
    18    15     1    1
    19     1     2   ar
    20     2     3   ar
    21     3     4    1
    22     3     5   ar
    23     5     6   ar
    24     6    29    1
    25    29    30   am
    26    30    31    2
    27    30    33    1
    28    33    34   ar
    29    34    35   ar
    30    35    36   ar
    31    36    40    1
    32    40    41    1
    33    41    42    1
    34    36    37   ar
    35    37    38   ar
    36    38    39    1
    37     6     7   ar
    38     7     8    1
    39    26    22    1
    40    15     9   ar
    41     7     1   ar
    42    38    33   ar
    43    42    40    1
    44    11    16    1
    45    11    17    1
    46    29    32    1
@<TRIPOS>MOLECULE
*****
 42 46 0 0 0
SMALL
GASTEIGER

@<TRIPOS>ATOM
      1 C         140.3623  139.8869  162.4437 C.ar    1  UNL1        0.0203
      2 C         139.2183  138.9175  162.4093 C.ar    1  UNL1        0.0310
      3 C         138.0325  139.1876  161.5314 C.ar    1  UNL1        0.1414
      4 F         136.8884  138.2181  161.4970 F       1  UNL1       -0.2041
      5 C         137.9907  140.4272  160.6877 C.ar    1  UNL1        0.0440
      6 C         139.1348  141.3967  160.7221 C.ar    1  UNL1        0.0488
      7 C         140.3206  141.1265  161.6001 C.ar    1  UNL1       -0.0067
      8 C         141.4647  142.0960  161.6345 C.3     1  UNL1        0.0324
      9 C         141.4048  139.6721  164.8138 C.ar    1  UNL1        0.1870
     10 C         142.5906  139.4019  165.6917 C.ar    1  UNL1        0.1629
     11 N         142.4472  139.4572  167.1839 N.pl3   1  UNL1       -0.3401
     12 N         143.9198  139.0765  165.0776 N.ar    1  UNL1       -0.2063
     13 C         144.0633  139.0212  163.5855 C.ar    1  UNL1        0.2002
     14 N         142.8775  139.2914  162.7076 N.ar    1  UNL1       -0.2208
     15 C         141.5482  139.6168  163.3217 C.ar    1  UNL1        0.1194
     16 H         141.5747  139.6708  167.5870 H       1  UNL1        0.1438
     17 H         143.2255  139.2799  167.7601 H       1  UNL1        0.1438
     18 O         140.0755  139.9975  165.4279 O.3     1  UNL1       -0.4693
     19 C         139.7796  141.3976  165.8773 C.3     1  UNL1        0.2252
     20 C         141.3869  143.9214  164.5749 C.2     1  UNL1        0.2492
     21 O         142.2104  143.0942  165.5172 O.2     1  UNL1       -0.2699
     22 N         139.9573  143.5542  164.3080 N.am    1  UNL1       -0.2740
     23 C         139.0155  144.2825  163.3955 C.3     1  UNL1        0.0938
     24 C         137.6946  143.5726  163.4303 C.3     1  UNL1        0.0233
     25 C         137.8200  142.4055  164.3642 C.3     1  UNL1        0.0254
     26 C         139.2185  142.3941  164.9067 C.3     1  UNL1        0.1192
     27 C         143.4201  145.0731  163.4393 C.2     1  UNL1        0.0048
     28 C         141.9932  145.1157  163.8997 C.2     1  UNL1        0.0579
     29 N         139.0930  142.6362  159.8785 N.am    1  UNL1       -0.2805
     30 C         139.7258  142.6395  158.5185 C.2     1  UNL1        0.2517
     31 O         140.4003  141.4032  158.0021 O.2     1  UNL1       -0.2697
     32 H         138.6504  143.4476  160.2174 H       1  UNL1        0.1552
     33 C         139.6841  143.8791  157.6748 C.ar    1  UNL1        0.0810
     34 C         138.9063  143.8876  156.3923 C.ar    1  UNL1        0.0065
     35 C         138.8646  145.1272  155.5488 C.ar    1  UNL1       -0.0040
     36 C         139.6008  146.3582  155.9877 C.ar    1  UNL1       -0.0203
     37 C         140.3786  146.3497  157.2702 C.ar    1  UNL1        0.0255
     38 C         140.4203  145.1101  158.1138 C.ar    1  UNL1        0.1441
     39 F         141.1981  145.1015  159.3964 F       1  UNL1       -0.2040
     40 C         139.5591  147.5978  155.1440 C.3     1  UNL1        0.0224
     41 C         139.9405  148.3304  153.8919 C.3     1  UNL1        0.0047
     42 C         139.1054  149.0122  154.9348 C.3     1  UNL1        0.0047
@<TRIPOS>BOND
     1    27    28    2
     2    28    20    1
     3    20    21    2
     4    20    22   am
     5    22    23    1
     6    23    24    1
     7    24    25    1
     8    25    26    1
     9    26    19    1
    10    19    18    1
    11    18     9    1
    12     9    10   ar
    13    10    11    1
    14    10    12   ar
    15    12    13   ar
    16    13    14   ar
    17    14    15   ar
    18    15     1    1
    19     1     2   ar
    20     2     3   ar
    21     3     4    1
    22     3     5   ar
    23     5     6   ar
    24     6    29    1
    25    29    30   am
    26    30    31    2
    27    30    33    1
    28    33    34   ar
    29    34    35   ar
    30    35    36   ar
    31    36    40    1
    32    40    41    1
    33    41    42    1
    34    36    37   ar
    35    37    38   ar
    36    38    39    1
    37     6     7   ar
    38     7     8    1
    39    26    22    1
    40    15     9   ar
    41     7     1   ar
    42    38    33   ar
    43    42    40    1
    44    11    16    1
    45    11    17    1
    46    29    32    1
@<TRIPOS>MOLECULE
*****
 42 46 0 0 0
SMALL
GASTEIGER

@<TRIPOS>ATOM
      1 C         141.9671  141.2163  161.3020 C.ar    1  UNL1        0.0203
      2 C         143.0183  140.9741  162.3443 C.ar    1  UNL1        0.0310
      3 C         143.8165  139.7043  162.3238 C.ar    1  UNL1        0.1414
      4 F         144.8676  139.4622  163.3661 F       1  UNL1       -0.2041
      5 C         143.5634  138.6765  161.2608 C.ar    1  UNL1        0.0440
      6 C         142.5123  138.9187  160.2185 C.ar    1  UNL1        0.0488
      7 C         141.7141  140.1886  160.2391 C.ar    1  UNL1       -0.0067
      8 C         140.6630  140.4307  159.1968 C.3     1  UNL1        0.0324
      9 C         139.7651  142.4812  161.8509 C.ar    1  UNL1        0.1870
     10 C         138.9671  143.7510  161.8715 C.ar    1  UNL1        0.1629
     11 N         137.5631  143.7461  162.3998 N.pl3   1  UNL1       -0.3401
     12 N         139.5728  145.0259  161.3638 N.ar    1  UNL1       -0.2063
     13 C         140.9767  145.0309  160.8356 C.ar    1  UNL1        0.2002
     14 N         141.7748  143.7611  160.8150 N.ar    1  UNL1       -0.2208
     15 C         141.1690  142.4862  161.3226 C.ar    1  UNL1        0.1194
     16 H         137.1655  142.9093  162.7330 H       1  UNL1        0.1438
     17 H         137.0393  144.5796  162.4133 H       1  UNL1        0.1438
     18 O         139.1593  141.2063  162.3586 O.3     1  UNL1       -0.4693
     19 C         139.4640  140.7327  163.7488 C.3     1  UNL1        0.2252
     20 C         141.7713  140.2451  166.0045 C.2     1  UNL1        0.2492
     21 O         141.1671  141.6177  166.0365 O.2     1  UNL1       -0.2699
     22 N         141.3010  139.2420  164.9933 N.am    1  UNL1       -0.2740
     23 C         141.8086  137.8388  164.8413 C.3     1  UNL1        0.0938
     24 C         141.0618  137.1956  163.7106 C.3     1  UNL1        0.0233
     25 C         140.0926  138.2013  163.1636 C.3     1  UNL1        0.0254
     26 C         140.2404  139.4662  163.9564 C.3     1  UNL1        0.1192
     27 C         142.4785  139.4393  168.3711 C.2     1  UNL1        0.0048
     28 C         142.8458  139.8757  166.9837 C.2     1  UNL1        0.0579
     29 N         142.2593  137.8910  159.1556 N.am    1  UNL1       -0.2805
     30 C         142.8834  138.0444  157.8004 C.2     1  UNL1        0.2517
     31 O         143.7607  139.2255  157.5080 O.2     1  UNL1       -0.2697
     32 H         141.6835  137.1158  159.3475 H       1  UNL1        0.1552
     33 C         142.6304  137.0167  156.7374 C.ar    1  UNL1        0.0810
     34 C         143.7835  136.3172  156.0808 C.ar    1  UNL1        0.0065
     35 C         143.5305  135.2896  155.0179 C.ar    1  UNL1       -0.0040
     36 C         142.1243  134.9614  154.6115 C.ar    1  UNL1       -0.0203
     37 C         140.9713  135.6608  155.2681 C.ar    1  UNL1        0.0255
     38 C         141.2243  136.6885  156.3310 C.ar    1  UNL1        0.1441
     39 F         140.0712  137.3880  156.9877 F       1  UNL1       -0.2040
     40 C         141.8713  133.9337  153.5486 C.3     1  UNL1        0.0224
     41 C         141.2618  133.5480  152.2334 C.3     1  UNL1        0.0047
     42 C         142.0426  132.5394  153.0226 C.3     1  UNL1        0.0047
@<TRIPOS>BOND
     1    27    28    2
     2    28    20    1
     3    20    21    2
     4    20    22   am
     5    22    23    1
     6    23    24    1
     7    24    25    1
     8    25    26    1
     9    26    19    1
    10    19    18    1
    11    18     9    1
    12     9    10   ar
    13    10    11    1
    14    10    12   ar
    15    12    13   ar
    16    13    14   ar
    17    14    15   ar
    18    15     1    1
    19     1     2   ar
    20     2     3   ar
    21     3     4    1
    22     3     5   ar
    23     5     6   ar
    24     6    29    1
    25    29    30   am
    26    30    31    2
    27    30    33    1
    28    33    34   ar
    29    34    35   ar
    30    35    36   ar
    31    36    40    1
    32    40    41    1
    33    41    42    1
    34    36    37   ar
    35    37    38   ar
    36    38    39    1
    37     6     7   ar
    38     7     8    1
    39    26    22    1
    40    15     9   ar
    41     7     1   ar
    42    38    33   ar
    43    42    40    1
    44    11    16    1
    45    11    17    1
    46    29    32    1
@<TRIPOS>MOLECULE
*****
 42 46 0 0 0
SMALL
GASTEIGER

@<TRIPOS>ATOM
      1 C         142.1909  140.0137  158.9109 C.ar    1  UNL1        0.0203
      2 C         142.6026  141.2897  158.2383 C.ar    1  UNL1        0.0310
      3 C         142.8489  142.5229  159.0559 C.ar    1  UNL1        0.1414
      4 F         143.2606  143.7989  158.3833 F       1  UNL1       -0.2041
      5 C         142.6834  142.4802  160.5462 C.ar    1  UNL1        0.0440
      6 C         142.2717  141.2042  161.2187 C.ar    1  UNL1        0.0488
      7 C         142.0254  139.9709  160.4011 C.ar    1  UNL1       -0.0067
      8 C         141.6137  138.6950  161.0736 C.3     1  UNL1        0.0324
      9 C         140.5946  138.5410  157.4849 C.ar    1  UNL1        0.1870
     10 C         140.3485  137.3079  156.6673 C.ar    1  UNL1        0.1629
     11 N         138.9984  137.0684  156.0590 N.pl3   1  UNL1       -0.3401
     12 N         141.4524  136.3141  156.4579 N.ar    1  UNL1       -0.2063
     13 C         142.8024  136.5535  157.0661 C.ar    1  UNL1        0.2002
     14 N         143.0486  137.7867  157.8837 N.ar    1  UNL1       -0.2208
     15 C         141.9447  138.7805  158.0932 C.ar    1  UNL1        0.1194
     16 H         138.2738  137.7206  156.1964 H       1  UNL1        0.1438
     17 H         138.8368  136.2590  155.5223 H       1  UNL1        0.1438
     18 O         139.4908  139.5348  157.6943 O.3     1  UNL1       -0.4693
     19 C         138.7343  139.5537  158.9895 C.3     1  UNL1        0.2252
     20 C         138.3115  139.6097  162.2248 C.2     1  UNL1        0.2492
     21 O         138.2182  138.2398  161.6208 O.2     1  UNL1       -0.2699
     22 N         138.5783  140.7985  161.3498 N.am    1  UNL1       -0.2740
     23 C         138.6977  142.2217  161.8084 C.3     1  UNL1        0.0938
     24 C         138.9658  143.0756  160.6046 C.3     1  UNL1        0.0233
     25 C         139.0122  142.1801  159.4021 C.3     1  UNL1        0.0254
     26 C         138.7727  140.7727  159.8627 C.3     1  UNL1        0.1192
     27 C         139.2918  139.5452  164.6300 C.2     1  UNL1        0.0048
     28 C         138.1379  139.7908  163.7036 C.2     1  UNL1        0.0579
     29 N         142.1062  141.1614  162.7089 N.am    1  UNL1       -0.2805
     30 C         143.2674  140.7884  163.5821 C.2     1  UNL1        0.2517
     31 O         144.5941  140.4582  162.9650 O.2     1  UNL1       -0.2697
     32 H         141.2354  141.3782  163.1140 H       1  UNL1        0.1552
     33 C         143.1020  140.7456  165.0723 C.ar    1  UNL1        0.0810
     34 C         143.1565  142.0149  165.8698 C.ar    1  UNL1        0.0065
     35 C         142.9910  141.9721  167.3600 C.ar    1  UNL1       -0.0040
     36 C         142.7711  140.6599  168.0527 C.ar    1  UNL1       -0.0203
     37 C         142.7166  139.3907  167.2553 C.ar    1  UNL1        0.0255
     38 C         142.8820  139.4335  165.7651 C.ar    1  UNL1        0.1441
     39 F         142.8275  138.1642  164.9676 F       1  UNL1       -0.2040
     40 C         142.6056  140.6171  169.5430 C.3     1  UNL1        0.0224
     41 C         141.9241  141.1004  170.7888 C.3     1  UNL1        0.0047
     42 C         143.0006  140.0598  170.8784 C.3     1  UNL1        0.0047
@<TRIPOS>BOND
     1    27    28    2
     2    28    20    1
     3    20    21    2
     4    20    22   am
     5    22    23    1
     6    23    24    1
     7    24    25    1
     8    25    26    1
     9    26    19    1
    10    19    18    1
    11    18     9    1
    12     9    10   ar
    13    10    11    1
    14    10    12   ar
    15    12    13   ar
    16    13    14   ar
    17    14    15   ar
    18    15     1    1
    19     1     2   ar
    20     2     3   ar
    21     3     4    1
    22     3     5   ar
    23     5     6   ar
    24     6    29    1
    25    29    30   am
    26    30    31    2
    27    30    33    1
    28    33    34   ar
    29    34    35   ar
    30    35    36   ar
    31    36    40    1
    32    40    41    1
    33    41    42    1
    34    36    37   ar
    35    37    38   ar
    36    38    39    1
    37     6     7   ar
    38     7     8    1
    39    26    22    1
    40    15     9   ar
    41     7     1   ar
    42    38    33   ar
    43    42    40    1
    44    11    16    1
    45    11    17    1
    46    29    32    1
@<TRIPOS>MOLECULE
*****
 42 46 0 0 0
SMALL
GASTEIGER

@<TRIPOS>ATOM
      1 C         141.3980  139.6686  167.1473 C.ar    1  UNL1        0.0203
      2 C         142.7435  139.0769  167.4465 C.ar    1  UNL1        0.0310
      3 C         143.5037  138.3601  166.3704 C.ar    1  UNL1        0.1414
      4 F         144.8492  137.7684  166.6696 F       1  UNL1       -0.2041
      5 C         142.9185  138.2350  164.9949 C.ar    1  UNL1        0.0440
      6 C         141.5730  138.8266  164.6956 C.ar    1  UNL1        0.0488
      7 C         140.8127  139.5435  165.7719 C.ar    1  UNL1       -0.0067
      8 C         139.4672  140.1351  165.4727 C.3     1  UNL1        0.0324
      9 C         140.8339  141.8586  168.4263 C.ar    1  UNL1        0.1870
     10 C         140.0736  142.5753  169.5025 C.ar    1  UNL1        0.1629
     11 N         140.2698  144.0486  169.7053 N.pl3   1  UNL1       -0.3401
     12 N         139.1172  141.8188  170.3760 N.ar    1  UNL1       -0.2063
     13 C         138.9211  140.3456  170.1733 C.ar    1  UNL1        0.2002
     14 N         139.6813  139.6289  169.0971 N.ar    1  UNL1       -0.2208
     15 C         140.6377  140.3854  168.2236 C.ar    1  UNL1        0.1194
     16 H         140.8975  144.5451  169.1320 H       1  UNL1        0.1438
     17 H         139.7708  144.5190  170.4116 H       1  UNL1        0.1438
     18 O         141.7903  142.6150  167.5528 O.3     1  UNL1       -0.4693
     19 C         141.3660  143.0580  166.1839 C.3     1  UNL1        0.2252
     20 C         140.9406  144.6749  163.3814 C.2     1  UNL1        0.2492
     21 O         139.7353  144.6739  164.2744 O.2     1  UNL1       -0.2699
     22 N         142.1934  143.9712  163.8119 N.am    1  UNL1       -0.2740
     23 C         143.4705  143.8871  163.0297 C.3     1  UNL1        0.0938
     24 C         144.4554  143.0919  163.8345 C.3     1  UNL1        0.0233
     25 C         143.7870  142.6845  165.1140 C.3     1  UNL1        0.0254
     26 C         142.3889  143.2280  165.1000 C.3     1  UNL1        0.1192
     27 C         139.7397  146.2804  161.7291 C.2     1  UNL1        0.0048
     28 C         140.8930  145.3796  162.0582 C.2     1  UNL1        0.0579
     29 N         140.9877  138.7015  163.3202 N.am    1  UNL1       -0.2805
     30 C         141.5366  139.5261  162.1938 C.2     1  UNL1        0.2517
     31 O         142.6707  140.4757  162.4428 O.2     1  UNL1       -0.2697
     32 H         140.2434  138.0783  163.1568 H       1  UNL1        0.1552
     33 C         140.9513  139.4010  160.8183 C.ar    1  UNL1        0.0810
     34 C         141.7768  138.8361  159.7006 C.ar    1  UNL1        0.0065
     35 C         141.1915  138.7111  158.3252 C.ar    1  UNL1       -0.0040
     36 C         139.7808  139.1509  158.0675 C.ar    1  UNL1       -0.0203
     37 C         138.9553  139.7158  159.1853 C.ar    1  UNL1        0.0255
     38 C         139.5406  139.8409  160.5607 C.ar    1  UNL1        0.1441
     39 F         138.7151  140.4058  161.6786 F       1  UNL1       -0.2040
     40 C         139.1955  139.0259  156.6920 C.3     1  UNL1        0.0224
     41 C         138.9432  138.2134  155.4566 C.3     1  UNL1        0.0047
     42 C         138.4342  139.6217  155.5451 C.3     1  UNL1        0.0047
@<TRIPOS>BOND
     1    27    28    2
     2    28    20    1
     3    20    21    2
     4    20    22   am
     5    22    23    1
     6    23    24    1
     7    24    25    1
     8    25    26    1
     9    26    19    1
    10    19    18    1
    11    18     9    1
    12     9    10   ar
    13    10    11    1
    14    10    12   ar
    15    12    13   ar
    16    13    14   ar
    17    14    15   ar
    18    15     1    1
    19     1     2   ar
    20     2     3   ar
    21     3     4    1
    22     3     5   ar
    23     5     6   ar
    24     6    29    1
    25    29    30   am
    26    30    31    2
    27    30    33    1
    28    33    34   ar
    29    34    35   ar
    30    35    36   ar
    31    36    40    1
    32    40    41    1
    33    41    42    1
    34    36    37   ar
    35    37    38   ar
    36    38    39    1
    37     6     7   ar
    38     7     8    1
    39    26    22    1
    40    15     9   ar
    41     7     1   ar
    42    38    33   ar
    43    42    40    1
    44    11    16    1
    45    11    17    1
    46    29    32    1
@<TRIPOS>MOLECULE
*****
 42 46 0 0 0
SMALL
GASTEIGER

@<TRIPOS>ATOM
      1 C         141.6896  141.5491  166.5234 C.ar    1  UNL1        0.0203
      2 C         142.7966  140.5452  166.3941 C.ar    1  UNL1        0.0310
      3 C         143.5514  140.4232  165.1036 C.ar    1  UNL1        0.1414
      4 F         144.6585  139.4193  164.9743 F       1  UNL1       -0.2041
      5 C         143.1992  141.3050  163.9424 C.ar    1  UNL1        0.0440
      6 C         142.0921  142.3089  164.0717 C.ar    1  UNL1        0.0488
      7 C         141.3373  142.4309  165.3623 C.ar    1  UNL1       -0.0067
      8 C         140.2303  143.4347  165.4916 C.3     1  UNL1        0.0324
      9 C         139.9657  140.6007  168.2202 C.ar    1  UNL1        0.1870
     10 C         139.2110  140.7227  169.5106 C.ar    1  UNL1        0.1629
     11 N         138.2418  139.6523  169.9169 N.pl3   1  UNL1       -0.3401
     12 N         139.4253  141.9152  170.3950 N.ar    1  UNL1       -0.2063
     13 C         140.3944  142.9857  169.9888 C.ar    1  UNL1        0.2002
     14 N         141.1491  142.8636  168.6983 N.ar    1  UNL1       -0.2208
     15 C         140.9348  141.6711  167.8140 C.ar    1  UNL1        0.1194
     16 H         138.1011  138.8696  169.3365 H       1  UNL1        0.1438
     17 H         137.7464  139.7324  170.7639 H       1  UNL1        0.1438
     18 O         139.7514  139.4082  167.3358 O.3     1  UNL1       -0.4693
     19 C         138.5377  139.3343  166.4575 C.3     1  UNL1        0.2252
     20 C         140.1486  138.2220  163.8465 C.2     1  UNL1        0.2492
     21 O         140.3177  137.3762  165.0738 O.2     1  UNL1       -0.2699
     22 N         139.2969  139.4557  163.8974 N.am    1  UNL1       -0.2740
     23 C         139.0361  140.3947  162.7571 C.3     1  UNL1        0.0938
     24 C         138.1345  141.4863  163.2525 C.3     1  UNL1        0.0233
     25 C         137.8380  141.2220  164.6990 C.3     1  UNL1        0.0254
     26 C         138.5565  139.9669  165.0976 C.3     1  UNL1        0.1192
     27 C         142.3266  137.8958  162.4680 C.2     1  UNL1        0.0048
     28 C         140.8312  137.8340  162.5684 C.2     1  UNL1        0.0579
     29 N         141.7399  143.1907  162.9106 N.am    1  UNL1       -0.2805
     30 C         141.7000  142.6230  161.5228 C.2     1  UNL1        0.2517
     31 O         142.0124  141.1735  161.2961 O.2     1  UNL1       -0.2697
     32 H         141.5349  144.1420  163.0594 H       1  UNL1        0.1552
     33 C         141.3478  143.5048  160.3615 C.ar    1  UNL1        0.0810
     34 C         141.8942  143.2029  158.9977 C.ar    1  UNL1        0.0065
     35 C         141.5420  144.0847  157.8366 C.ar    1  UNL1       -0.0040
     36 C         140.6432  145.2684  158.0393 C.ar    1  UNL1       -0.0203
     37 C         140.0967  145.5703  159.4031 C.ar    1  UNL1        0.0255
     38 C         140.4490  144.6885  160.5643 C.ar    1  UNL1        0.1441
     39 F         139.9025  144.9904  161.9282 F       1  UNL1       -0.2040
     40 C         140.2909  146.1502  156.8780 C.3     1  UNL1        0.0224
     41 C         139.4175  147.2048  156.2658 C.3     1  UNL1        0.0047
     42 C         140.5542  146.6229  155.4790 C.3     1  UNL1        0.0047
@<TRIPOS>BOND
     1    27    28    2
     2    28    20    1
     3    20    21    2
     4    20    22   am
     5    22    23    1
     6    23    24    1
     7    24    25    1
     8    25    26    1
     9    26    19    1
    10    19    18    1
    11    18     9    1
    12     9    10   ar
    13    10    11    1
    14    10    12   ar
    15    12    13   ar
    16    13    14   ar
    17    14    15   ar
    18    15     1    1
    19     1     2   ar
    20     2     3   ar
    21     3     4    1
    22     3     5   ar
    23     5     6   ar
    24     6    29    1
    25    29    30   am
    26    30    31    2
    27    30    33    1
    28    33    34   ar
    29    34    35   ar
    30    35    36   ar
    31    36    40    1
    32    40    41    1
    33    41    42    1
    34    36    37   ar
    35    37    38   ar
    36    38    39    1
    37     6     7   ar
    38     7     8    1
    39    26    22    1
    40    15     9   ar
    41     7     1   ar
    42    38    33   ar
    43    42    40    1
    44    11    16    1
    45    11    17    1
    46    29    32    1
@<TRIPOS>MOLECULE
*****
 42 46 0 0 0
SMALL
GASTEIGER

@<TRIPOS>ATOM
      1 C         141.4705  141.9593  159.1683 C.ar    1  UNL1        0.0203
      2 C         142.8095  142.2775  158.5716 C.ar    1  UNL1        0.0310
      3 C         144.0154  142.3964  159.4556 C.ar    1  UNL1        0.1414
      4 F         145.3543  142.7146  158.8588 F       1  UNL1       -0.2041
      5 C         143.8825  142.1972  160.9364 C.ar    1  UNL1        0.0440
      6 C         142.5435  141.8791  161.5331 C.ar    1  UNL1        0.0488
      7 C         141.3376  141.7601  160.6490 C.ar    1  UNL1       -0.0067
      8 C         139.9986  141.4420  161.2457 C.3     1  UNL1        0.0324
      9 C         139.9677  140.5437  157.5911 C.ar    1  UNL1        0.1870
     10 C         138.7617  140.4248  156.7071 C.ar    1  UNL1        0.1629
     11 N         138.4648  139.1281  156.0139 N.pl3   1  UNL1       -0.3401
     12 N         137.8527  141.6026  156.5161 N.ar    1  UNL1       -0.2063
     13 C         138.1496  142.8993  157.2092 C.ar    1  UNL1        0.2002
     14 N         139.3555  143.0182  158.0932 N.ar    1  UNL1       -0.2208
     15 C         140.2646  141.8404  158.2842 C.ar    1  UNL1        0.1194
     16 H         139.0614  138.3551  156.1392 H       1  UNL1        0.1438
     17 H         137.6733  139.0501  155.4337 H       1  UNL1        0.1438
     18 O         140.8767  139.3659  157.7820 O.3     1  UNL1       -0.4693
     19 C         140.6991  138.4661  158.9689 C.3     1  UNL1        0.2252
     20 C         140.2369  137.8953  162.1486 C.2     1  UNL1        0.2492
     21 O         138.9718  137.9207  161.3429 O.2     1  UNL1       -0.2699
     22 N         141.5586  138.1216  161.4764 N.am    1  UNL1       -0.2740
     23 C         142.9000  138.1252  162.1478 C.3     1  UNL1        0.0938
     24 C         143.9415  138.3898  161.1013 C.3     1  UNL1        0.0233
     25 C         143.2438  138.5497  159.7830 C.3     1  UNL1        0.0254
     26 C         141.7711  138.3839  160.0149 C.3     1  UNL1        0.1192
     27 C         140.1583  138.7984  164.5833 C.2     1  UNL1        0.0048
     28 C         140.1801  137.6437  163.6262 C.2     1  UNL1        0.0579
     29 N         142.4106  141.6798  163.0138 N.am    1  UNL1       -0.2805
     30 C         141.9935  142.8237  163.8899 C.2     1  UNL1        0.2517
     31 O         141.7093  144.1667  163.2854 O.2     1  UNL1       -0.2697
     32 H         142.5971  140.7984  163.4106 H       1  UNL1        0.1552
     33 C         141.8605  142.6245  165.3708 C.ar    1  UNL1        0.0810
     34 C         143.0743  142.3237  166.1990 C.ar    1  UNL1        0.0065
     35 C         142.9412  142.1245  167.6798 C.ar    1  UNL1       -0.0040
     36 C         141.5944  142.2261  168.3322 C.ar    1  UNL1       -0.0203
     37 C         140.3806  142.5269  167.5039 C.ar    1  UNL1        0.0255
     38 C         140.5136  142.7261  166.0232 C.ar    1  UNL1        0.1441
     39 F         139.2997  143.0269  165.1948 F       1  UNL1       -0.2040
     40 C         141.4614  142.0270  169.8130 C.3     1  UNL1        0.0224
     41 C         140.7076  142.2476  171.0909 C.3     1  UNL1        0.0047
     42 C         141.9849  141.4613  171.0999 C.3     1  UNL1        0.0047
@<TRIPOS>BOND
     1    27    28    2
     2    28    20    1
     3    20    21    2
     4    20    22   am
     5    22    23    1
     6    23    24    1
     7    24    25    1
     8    25    26    1
     9    26    19    1
    10    19    18    1
    11    18     9    1
    12     9    10   ar
    13    10    11    1
    14    10    12   ar
    15    12    13   ar
    16    13    14   ar
    17    14    15   ar
    18    15     1    1
    19     1     2   ar
    20     2     3   ar
    21     3     4    1
    22     3     5   ar
    23     5     6   ar
    24     6    29    1
    25    29    30   am
    26    30    31    2
    27    30    33    1
    28    33    34   ar
    29    34    35   ar
    30    35    36   ar
    31    36    40    1
    32    40    41    1
    33    41    42    1
    34    36    37   ar
    35    37    38   ar
    36    38    39    1
    37     6     7   ar
    38     7     8    1
    39    26    22    1
    40    15     9   ar
    41     7     1   ar
    42    38    33   ar
    43    42    40    1
    44    11    16    1
    45    11    17    1
    46    29    32    1
@<TRIPOS>MOLECULE
*****
 42 46 0 0 0
SMALL
GASTEIGER

@<TRIPOS>ATOM
      1 C         139.8259  140.6647  158.3190 C.ar    1  UNL1        0.0203
      2 C         140.9041  139.8611  157.6546 C.ar    1  UNL1        0.0310
      3 C         141.9893  139.2350  158.4795 C.ar    1  UNL1        0.1414
      4 F         143.0675  138.4314  157.8150 F       1  UNL1       -0.2041
      5 C         141.9962  139.4126  159.9689 C.ar    1  UNL1        0.0440
      6 C         140.9180  140.2163  160.6334 C.ar    1  UNL1        0.0488
      7 C         139.8328  140.8424  159.8084 C.ar    1  UNL1       -0.0067
      8 C         138.7546  141.6460  160.4729 C.3     1  UNL1        0.0324
      9 C         138.9642  142.6272  156.8506 C.ar    1  UNL1        0.1870
     10 C         137.8791  143.2532  156.0257 C.ar    1  UNL1        0.1629
     11 N         138.1025  144.5896  155.3821 N.pl3   1  UNL1       -0.3401
     12 N         136.5705  142.5428  155.8442 N.ar    1  UNL1       -0.2063
     13 C         136.3470  141.2064  156.4877 C.ar    1  UNL1        0.2002
     14 N         137.4321  140.5804  157.3126 N.ar    1  UNL1       -0.2208
     15 C         138.7407  141.2908  157.4941 C.ar    1  UNL1        0.1194
     16 H         138.9614  145.0559  155.5012 H       1  UNL1        0.1438
     17 H         137.3903  145.0005  154.8407 H       1  UNL1        0.1438
     18 O         140.2728  143.3376  157.0321 O.3     1  UNL1       -0.4693
     19 C         140.5128  144.1656  158.2595 C.3     1  UNL1        0.2252
     20 C         140.7020  145.0414  161.3975 C.2     1  UNL1        0.2492
     21 O         139.4892  145.5681  160.6890 O.2     1  UNL1       -0.2699
     22 N         141.6935  144.1933  160.6574 N.am    1  UNL1       -0.2740
     23 C         142.9461  143.5989  161.2299 C.3     1  UNL1        0.0938
     24 C         143.6333  142.8290  160.1413 C.3     1  UNL1        0.0233
     25 C         142.8054  142.9475  158.8961 C.3     1  UNL1        0.0254
     26 C         141.6065  143.7908  159.2151 C.3     1  UNL1        0.1192
     27 C         140.0107  144.7894  163.8892 C.2     1  UNL1        0.0048
     28 C         140.9232  145.3628  162.8458 C.2     1  UNL1        0.0579
     29 N         140.9249  140.3939  162.1228 N.am    1  UNL1       -0.2805
     30 C         140.3363  139.3349  163.0071 C.2     1  UNL1        0.2517
     31 O         139.7408  138.0983  162.4020 O.2     1  UNL1       -0.2697
     32 H         141.3157  141.2055  162.5200 H       1  UNL1        0.1552
     33 C         140.3431  139.5125  164.4966 C.ar    1  UNL1        0.0810
     34 C         141.6236  139.3644  165.2637 C.ar    1  UNL1        0.0065
     35 C         141.6304  139.5420  166.7531 C.ar    1  UNL1       -0.0040
     36 C         140.3568  139.8676  167.4754 C.ar    1  UNL1       -0.0203
     37 C         139.0763  140.0157  166.7084 C.ar    1  UNL1        0.0255
     38 C         139.0695  139.8381  165.2190 C.ar    1  UNL1        0.1441
     39 F         137.7890  139.9861  164.4518 F       1  UNL1       -0.2040
     40 C         140.3637  140.0452  168.9649 C.3     1  UNL1        0.0224
     41 C         141.0152  139.8196  170.2970 C.3     1  UNL1        0.0047
     42 C         139.7240  140.5783  170.2126 C.3     1  UNL1        0.0047
@<TRIPOS>BOND
     1    27    28    2
     2    28    20    1
     3    20    21    2
     4    20    22   am
     5    22    23    1
     6    23    24    1
     7    24    25    1
     8    25    26    1
     9    26    19    1
    10    19    18    1
    11    18     9    1
    12     9    10   ar
    13    10    11    1
    14    10    12   ar
    15    12    13   ar
    16    13    14   ar
    17    14    15   ar
    18    15     1    1
    19     1     2   ar
    20     2     3   ar
    21     3     4    1
    22     3     5   ar
    23     5     6   ar
    24     6    29    1
    25    29    30   am
    26    30    31    2
    27    30    33    1
    28    33    34   ar
    29    34    35   ar
    30    35    36   ar
    31    36    40    1
    32    40    41    1
    33    41    42    1
    34    36    37   ar
    35    37    38   ar
    36    38    39    1
    37     6     7   ar
    38     7     8    1
    39    26    22    1
    40    15     9   ar
    41     7     1   ar
    42    38    33   ar
    43    42    40    1
    44    11    16    1
    45    11    17    1
    46    29    32    1
@<TRIPOS>MOLECULE
*****
 42 46 0 0 0
SMALL
GASTEIGER

@<TRIPOS>ATOM
      1 C         141.8089  140.7828  159.2026 C.ar    1  UNL1        0.0203
      2 C         142.9494  141.5251  158.5716 C.ar    1  UNL1        0.0310
      3 C         143.8528  142.3722  159.4179 C.ar    1  UNL1        0.1414
      4 F         144.9933  143.1145  158.7869 F       1  UNL1       -0.2041
      5 C         143.6156  142.4770  160.8954 C.ar    1  UNL1        0.0440
      6 C         142.4751  141.7347  161.5264 C.ar    1  UNL1        0.0488
      7 C         141.5717  140.8876  160.6800 C.ar    1  UNL1       -0.0067
      8 C         140.4312  140.1453  161.3111 C.3     1  UNL1        0.0324
      9 C         139.6932  140.5422  157.7140 C.ar    1  UNL1        0.1870
     10 C         138.7898  139.6951  156.8676 C.ar    1  UNL1        0.1629
     11 N         137.5774  140.3015  156.2254 N.pl3   1  UNL1       -0.3401
     12 N         139.0988  138.2415  156.6635 N.ar    1  UNL1       -0.2063
     13 C         140.3111  137.6351  157.3056 C.ar    1  UNL1        0.2002
     14 N         141.2145  138.4822  158.1520 N.ar    1  UNL1       -0.2208
     15 C         140.9055  139.9357  158.3562 C.ar    1  UNL1        0.1194
     16 H         137.3746  141.2556  156.3594 H       1  UNL1        0.1438
     17 H         136.9846  139.7455  155.6699 H       1  UNL1        0.1438
     18 O         139.3842  141.9957  157.9182 O.3     1  UNL1       -0.4693
     19 C         138.6750  142.4443  159.1615 C.3     1  UNL1        0.2252
     20 C         138.1351  142.6935  162.3702 C.2     1  UNL1        0.2492
     21 O         137.3232  141.6276  161.6958 O.2     1  UNL1       -0.2699
     22 N         139.0894  143.5288  161.5692 N.am    1  UNL1       -0.2740
     23 C         139.9631  144.6253  162.1025 C.3     1  UNL1        0.0938
     24 C         140.7512  145.1884  160.9572 C.3     1  UNL1        0.0233
     25 C         140.3646  144.4400  159.7160 C.3     1  UNL1        0.0254
     26 C         139.3375  143.4142  160.0943 C.3     1  UNL1        0.1192
     27 C         138.9132  142.2300  164.8053 C.2     1  UNL1        0.0048
     28 C         137.9928  142.9240  163.8455 C.2     1  UNL1        0.0579
     29 N         142.2380  141.8395  163.0038 N.am    1  UNL1       -0.2805
     30 C         142.8336  140.8236  163.9329 C.2     1  UNL1        0.2517
     31 O         143.6664  139.7030  163.3846 O.2     1  UNL1       -0.2697
     32 H         141.6914  142.5750  163.3637 H       1  UNL1        0.1552
     33 C         142.5965  140.9284  165.4104 C.ar    1  UNL1        0.0810
     34 C         141.7617  139.8977  166.1109 C.ar    1  UNL1        0.0065
     35 C         141.5246  140.0025  167.5883 C.ar    1  UNL1       -0.0040
     36 C         142.1223  141.1380  168.3652 C.ar    1  UNL1       -0.0203
     37 C         142.9571  142.1686  167.6646 C.ar    1  UNL1        0.0255
     38 C         143.1941  142.0639  166.1872 C.ar    1  UNL1        0.1441
     39 F         144.0290  143.0946  165.4866 F       1  UNL1       -0.2040
     40 C         141.8851  141.2427  169.8427 C.3     1  UNL1        0.0224
     41 C         142.1345  140.7481  171.2366 C.3     1  UNL1        0.0047
     42 C         141.2251  141.9187  171.0077 C.3     1  UNL1        0.0047
@<TRIPOS>BOND
     1    27    28    2
     2    28    20    1
     3    20    21    2
     4    20    22   am
     5    22    23    1
     6    23    24    1
     7    24    25    1
     8    25    26    1
     9    26    19    1
    10    19    18    1
    11    18     9    1
    12     9    10   ar
    13    10    11    1
    14    10    12   ar
    15    12    13   ar
    16    13    14   ar
    17    14    15   ar
    18    15     1    1
    19     1     2   ar
    20     2     3   ar
    21     3     4    1
    22     3     5   ar
    23     5     6   ar
    24     6    29    1
    25    29    30   am
    26    30    31    2
    27    30    33    1
    28    33    34   ar
    29    34    35   ar
    30    35    36   ar
    31    36    40    1
    32    40    41    1
    33    41    42    1
    34    36    37   ar
    35    37    38   ar
    36    38    39    1
    37     6     7   ar
    38     7     8    1
    39    26    22    1
    40    15     9   ar
    41     7     1   ar
    42    38    33   ar
    43    42    40    1
    44    11    16    1
    45    11    17    1
    46    29    32    1
