@<TRIPOS>MOLECULE
*****
 32 36 0 0 0
SMALL
GASTEIGER

@<TRIPOS>ATOM
      1 C         141.2675  139.8871  165.6405 C.ar    1  UNL1        0.0015
      2 C         140.0884  139.0524  165.2364 C.ar    1  UNL1        0.0031
      3 C         138.9727  138.8096  166.2091 C.ar    1  UNL1        0.0366
      4 C         139.0360  139.4014  167.5860 C.ar    1  UNL1        0.1362
      5 C         140.2150  140.2361  167.9901 C.ar    1  UNL1        0.0357
      6 C         141.3308  140.4789  167.0173 C.ar    1  UNL1        0.0007
      7 C         140.2783  140.8279  169.3670 C.3     1  UNL1        0.1582
      8 C         140.4797  141.4815  170.7020 C.3     1  UNL1        0.2351
      9 O         141.7889  142.2130  170.6671 O.2     1  UNL1       -0.4478
     10 C         142.3965  142.0116  169.3106 C.2     1  UNL1        0.2770
     11 N         143.7074  142.5683  168.8402 N.pl3   1  UNL1       -0.3133
     12 N         141.4629  141.1555  168.5070 N.2     1  UNL1       -0.2202
     13 C         139.1626  140.5851  170.3397 C.3     1  UNL1        0.1174
     14 C         139.1450  140.4200  169.9555 C.3     1  UNL1        0.1502
     15 O         139.1635  140.5935  170.3593 O.3     1  UNL1       -0.3532
     16 C         139.1450  140.4200  169.9555 C.3     1  UNL1        0.1502
     17 C         137.9836  139.7504  169.9356 C.3     1  UNL1        0.1726
     18 O         137.9203  139.1586  168.5587 O.3     1  UNL1       -0.4792
     19 H         144.2521  143.1226  169.4447 H       1  UNL1        0.1466
     20 H         144.0231  142.3796  167.9270 H       1  UNL1        0.1466
     21 C         143.2588  141.2064  162.4713 C.ar    1  UNL1        0.0608
     22 C         144.6145  140.6156  162.7222 C.ar    1  UNL1        0.1071
     23 N         144.8546  139.7819  163.9459 N.ar    1  UNL1       -0.2417
     24 C         143.7389  139.5391  164.9187 C.ar    1  UNL1        0.0989
     25 C         142.3832  140.1299  164.6678 C.ar    1  UNL1        0.0198
     26 C         142.1432  140.9636  163.4440 C.ar    1  UNL1        0.0113
     27 C         142.5388  143.7074  158.8002 C.3     1  UNL1        0.0903
     28 C         142.7788  142.8737  160.0239 C.1     1  UNL1       -0.0853
     29 C         143.0188  142.0400  161.2476 C.1     1  UNL1       -0.0628
     30 C         136.8679  139.5076  170.9083 C.3     1  UNL1        0.0438
     31 C         136.1998  138.1657  170.9636 C.3     1  UNL1        0.0037
     32 C         136.2436  137.3576  172.2266 C.3     1  UNL1        0.0001
@<TRIPOS>BOND
     1    27    28    1
     2    28    29    3
     3    29    21    1
     4    21    22   ar
     5    22    23   ar
     6    23    24   ar
     7    24    25   ar
     8    25     1    1
     9     1     2   ar
    10     2     3   ar
    11     3     4   ar
    12     4     5   ar
    13     5     6   ar
    14     5     7    1
    15     7     8    1
    16     8     9    1
    17     9    10    1
    18    10    11    1
    19    10    12    2
    20     7    13    1
    21    13    14    1
    22    14    15    1
    23    15    16    1
    24    13    17    1
    25    17    30    1
    26    30    31    1
    27    31    32    1
    28    17    18    1
    29    25    26   ar
    30    26    21   ar
    31     6     1   ar
    32    12     7    1
    33    16    13    1
    34    18     4    1
    35    11    19    1
    36    11    20    1
@<TRIPOS>MOLECULE
*****
 32 36 0 0 0
SMALL
GASTEIGER

@<TRIPOS>ATOM
      1 C         139.3489  140.0600  166.3619 C.ar    1  UNL1        0.0015
      2 C         139.3323  138.6557  165.8346 C.ar    1  UNL1        0.0031
      3 C         138.9310  138.3929  164.4134 C.ar    1  UNL1        0.0366
      4 C         138.5463  139.5343  163.5194 C.ar    1  UNL1        0.1362
      5 C         138.5629  140.9384  164.0466 C.ar    1  UNL1        0.0357
      6 C         138.9642  141.2013  165.4679 C.ar    1  UNL1        0.0007
      7 C         138.1781  142.0798  163.1526 C.3     1  UNL1        0.1582
      8 C         137.8207  143.3155  162.3811 C.3     1  UNL1        0.2351
      9 O         137.9767  144.4944  163.2956 O.2     1  UNL1       -0.4478
     10 C         138.4305  143.9872  164.6322 C.2     1  UNL1        0.2770
     11 N         138.7107  144.8250  165.8444 N.pl3   1  UNL1       -0.3133
     12 N         138.5550  142.4949  164.5439 N.2     1  UNL1       -0.2202
     13 C         137.7768  141.8170  161.7314 C.3     1  UNL1        0.1174
     14 C         137.8842  141.4986  161.9808 C.3     1  UNL1        0.1502
     15 O         137.7713  141.8333  161.7186 O.3     1  UNL1       -0.3532
     16 C         137.8842  141.4986  161.9808 C.3     1  UNL1        0.1502
     17 C         137.7602  140.4128  161.2042 C.3     1  UNL1        0.1726
     18 O         138.1450  139.2715  162.0982 O.3     1  UNL1       -0.4792
     19 H         138.5995  145.8023  165.8037 H       1  UNL1        0.1466
     20 H         139.0058  144.3976  166.6807 H       1  UNL1        0.1466
     21 C         141.4515  141.2724  169.5018 C.ar    1  UNL1        0.0608
     22 C         140.5529  140.8484  170.6255 C.ar    1  UNL1        0.1071
     23 N         139.2530  140.1617  170.3281 N.ar    1  UNL1       -0.2417
     24 C         138.8516  139.8988  168.9068 C.ar    1  UNL1        0.0989
     25 C         139.7502  140.3228  167.7831 C.ar    1  UNL1        0.0198
     26 C         141.0502  141.0096  168.0806 C.ar    1  UNL1        0.0113
     27 C         145.3513  143.3328  170.3941 C.3     1  UNL1        0.0903
     28 C         144.0514  142.6460  170.0967 C.1     1  UNL1       -0.0853
     29 C         142.7514  141.9592  169.7992 C.1     1  UNL1       -0.0628
     30 C         137.3589  140.1499  159.7830 C.3     1  UNL1        0.0438
     31 C         138.4099  139.9460  158.7323 C.3     1  UNL1        0.0037
     32 C         139.8582  140.1371  159.0732 C.3     1  UNL1        0.0001
@<TRIPOS>BOND
     1    27    28    1
     2    28    29    3
     3    29    21    1
     4    21    22   ar
     5    22    23   ar
     6    23    24   ar
     7    24    25   ar
     8    25     1    1
     9     1     2   ar
    10     2     3   ar
    11     3     4   ar
    12     4     5   ar
    13     5     6   ar
    14     5     7    1
    15     7     8    1
    16     8     9    1
    17     9    10    1
    18    10    11    1
    19    10    12    2
    20     7    13    1
    21    13    14    1
    22    14    15    1
    23    15    16    1
    24    13    17    1
    25    17    30    1
    26    30    31    1
    27    31    32    1
    28    17    18    1
    29    25    26   ar
    30    26    21   ar
    31     6     1   ar
    32    12     7    1
    33    16    13    1
    34    18     4    1
    35    11    19    1
    36    11    20    1
@<TRIPOS>MOLECULE
*****
 32 36 0 0 0
SMALL
GASTEIGER

@<TRIPOS>ATOM
      1 C         141.3447  141.7675  165.8738 C.ar    1  UNL1        0.0015
      2 C         141.9645  140.5525  165.2494 C.ar    1  UNL1        0.0031
      3 C         142.5233  139.4650  166.1184 C.ar    1  UNL1        0.0366
      4 C         142.4624  139.5925  167.6117 C.ar    1  UNL1        0.1362
      5 C         141.8427  140.8074  168.2361 C.ar    1  UNL1        0.0357
      6 C         141.2838  141.8949  167.3671 C.ar    1  UNL1        0.0007
      7 C         141.7817  140.9348  169.7294 C.3     1  UNL1        0.1582
      8 C         141.6500  141.2006  171.1998 C.3     1  UNL1        0.2351
      9 O         140.9717  142.5274  171.3722 O.2     1  UNL1       -0.4478
     10 C         140.6843  143.0817  170.0084 C.2     1  UNL1        0.2770
     11 N         140.0140  144.3903  169.7118 N.pl3   1  UNL1       -0.3133
     12 N         141.1849  142.0975  168.9930 N.2     1  UNL1       -0.2202
     13 C         142.3405  139.8474  170.5984 C.3     1  UNL1        0.1174
     14 C         142.3575  139.8118  170.1817 C.3     1  UNL1        0.1502
     15 O         142.3397  139.8492  170.6197 O.3     1  UNL1       -0.3532
     16 C         142.3575  139.8118  170.1817 C.3     1  UNL1        0.1502
     17 C         142.9603  138.6325  169.9740 C.3     1  UNL1        0.1726
     18 O         143.0212  138.5050  168.4806 O.3     1  UNL1       -0.4792
     19 H         139.7191  144.9708  170.4503 H       1  UNL1        0.1466
     20 H         139.8689  144.6687  168.7787 H       1  UNL1        0.1466
     21 C         140.6908  144.0806  162.7160 C.ar    1  UNL1        0.0608
     22 C         139.6683  145.0299  163.2668 C.ar    1  UNL1        0.1071
     23 N         139.2047  144.8918  164.6866 N.ar    1  UNL1       -0.2417
     24 C         139.7635  143.8043  165.5557 C.ar    1  UNL1        0.0989
     25 C         140.7859  142.8550  165.0048 C.ar    1  UNL1        0.0198
     26 C         141.2496  142.9931  163.5849 C.ar    1  UNL1        0.0113
     27 C         142.0817  144.4951  158.4564 C.3     1  UNL1        0.0903
     28 C         141.6180  144.3569  159.8763 C.1     1  UNL1       -0.0853
     29 C         141.1544  144.2187  161.2962 C.1     1  UNL1       -0.0628
     30 C         143.5191  137.5449  170.8429 C.3     1  UNL1        0.0438
     31 C         144.4664  136.5356  170.2652 C.3     1  UNL1        0.0037
     32 C         144.9666  135.4045  171.1141 C.3     1  UNL1        0.0001
@<TRIPOS>BOND
     1    27    28    1
     2    28    29    3
     3    29    21    1
     4    21    22   ar
     5    22    23   ar
     6    23    24   ar
     7    24    25   ar
     8    25     1    1
     9     1     2   ar
    10     2     3   ar
    11     3     4   ar
    12     4     5   ar
    13     5     6   ar
    14     5     7    1
    15     7     8    1
    16     8     9    1
    17     9    10    1
    18    10    11    1
    19    10    12    2
    20     7    13    1
    21    13    14    1
    22    14    15    1
    23    15    16    1
    24    13    17    1
    25    17    30    1
    26    30    31    1
    27    31    32    1
    28    17    18    1
    29    25    26   ar
    30    26    21   ar
    31     6     1   ar
    32    12     7    1
    33    16    13    1
    34    18     4    1
    35    11    19    1
    36    11    20    1
@<TRIPOS>MOLECULE
*****
 32 36 0 0 0
SMALL
GASTEIGER

@<TRIPOS>ATOM
      1 C         141.5298  143.4484  163.7849 C.ar    1  UNL1        0.0015
      2 C         142.8829  143.7115  164.3766 C.ar    1  UNL1        0.0031
      3 C         143.3330  142.9494  165.5876 C.ar    1  UNL1        0.0366
      4 C         142.4301  141.9242  166.2070 C.ar    1  UNL1        0.1362
      5 C         141.0770  141.6611  165.6154 C.ar    1  UNL1        0.0357
      6 C         140.6269  142.4232  164.4044 C.ar    1  UNL1        0.0007
      7 C         140.1741  140.6359  166.2349 C.3     1  UNL1        0.1582
      8 C         139.1673  139.6465  166.7421 C.3     1  UNL1        0.2351
      9 O         137.9611  139.7151  165.8528 O.2     1  UNL1       -0.4478
     10 C         138.2226  140.7470  164.7960 C.2     1  UNL1        0.2770
     11 N         137.2816  141.1407  163.6963 N.pl3   1  UNL1       -0.3133
     12 N         139.5902  141.3161  165.0321 N.2     1  UNL1       -0.2202
     13 C         140.6242  139.8739  167.4459 C.3     1  UNL1        0.1174
     14 C         140.8761  140.1599  167.2730 C.3     1  UNL1        0.1502
     15 O         140.6113  139.8592  167.4547 O.3     1  UNL1       -0.3532
     16 C         140.8761  140.1599  167.2730 C.3     1  UNL1        0.1502
     17 C         141.9772  140.1370  168.0375 C.3     1  UNL1        0.1726
     18 O         142.8802  141.1621  167.4180 O.3     1  UNL1       -0.4792
     19 H         136.4006  140.7075  163.6237 H       1  UNL1        0.1466
     20 H         137.5451  141.8323  163.0470 H       1  UNL1        0.1466
     21 C         141.2047  144.6481  160.0160 C.ar    1  UNL1        0.0608
     22 C         140.1796  145.7347  160.1518 C.ar    1  UNL1        0.1071
     23 N         139.6045  146.0592  161.4986 N.ar    1  UNL1       -0.2417
     24 C         140.0546  145.2971  162.7097 C.ar    1  UNL1        0.0989
     25 C         141.0797  144.2105  162.5739 C.ar    1  UNL1        0.0198
     26 C         141.6548  143.8860  161.2270 C.ar    1  UNL1        0.0113
     27 C         142.9298  143.6746  155.9754 C.3     1  UNL1        0.0903
     28 C         142.3547  143.9991  157.3222 C.1     1  UNL1       -0.0853
     29 C         141.7797  144.3236  158.6692 C.1     1  UNL1       -0.0628
     30 C         142.4274  139.3748  169.2485 C.3     1  UNL1        0.0438
     31 C         142.7691  140.1079  170.5118 C.3     1  UNL1        0.0037
     32 C         141.8658  141.1940  171.0164 C.3     1  UNL1        0.0001
@<TRIPOS>BOND
     1    27    28    1
     2    28    29    3
     3    29    21    1
     4    21    22   ar
     5    22    23   ar
     6    23    24   ar
     7    24    25   ar
     8    25     1    1
     9     1     2   ar
    10     2     3   ar
    11     3     4   ar
    12     4     5   ar
    13     5     6   ar
    14     5     7    1
    15     7     8    1
    16     8     9    1
    17     9    10    1
    18    10    11    1
    19    10    12    2
    20     7    13    1
    21    13    14    1
    22    14    15    1
    23    15    16    1
    24    13    17    1
    25    17    30    1
    26    30    31    1
    27    31    32    1
    28    17    18    1
    29    25    26   ar
    30    26    21   ar
    31     6     1   ar
    32    12     7    1
    33    16    13    1
    34    18     4    1
    35    11    19    1
    36    11    20    1
@<TRIPOS>MOLECULE
*****
 32 36 0 0 0
SMALL
GASTEIGER

@<TRIPOS>ATOM
      1 C         138.8862  139.2596  164.8867 C.ar    1  UNL1        0.0015
      2 C         139.1762  137.8968  164.3310 C.ar    1  UNL1        0.0031
      3 C         139.2258  137.6872  162.8466 C.ar    1  UNL1        0.0366
      4 C         138.9853  138.8403  161.9178 C.ar    1  UNL1        0.1362
      5 C         138.6953  140.2030  162.4735 C.ar    1  UNL1        0.0357
      6 C         138.6458  140.4127  163.9580 C.ar    1  UNL1        0.0007
      7 C         138.4548  141.3561  161.5447 C.3     1  UNL1        0.1582
      8 C         138.1952  142.5977  160.7441 C.3     1  UNL1        0.2351
      9 O         137.9534  143.7256  161.7032 O.2     1  UNL1       -0.4478
     10 C         138.0636  143.1809  163.0965 C.2     1  UNL1        0.2770
     11 N         137.8938  143.9632  164.3649 N.pl3   1  UNL1       -0.3133
     12 N         138.3735  141.7165  162.9986 N.2     1  UNL1       -0.2202
     13 C         138.5043  141.1464  160.0603 C.3     1  UNL1        0.1174
     14 C         138.5714  140.8247  160.3194 C.3     1  UNL1        0.1502
     15 O         138.5009  141.1629  160.0470 O.3     1  UNL1       -0.3532
     16 C         138.5714  140.8247  160.3194 C.3     1  UNL1        0.1502
     17 C         138.7943  139.7837  159.5046 C.3     1  UNL1        0.1726
     18 O         139.0348  138.6306  160.4334 O.3     1  UNL1       -0.4792
     19 H         137.6905  144.9257  164.3262 H       1  UNL1        0.1466
     20 H         137.9857  143.5142  165.2362 H       1  UNL1        0.1466
     21 C         139.8025  140.5586  168.5231 C.ar    1  UNL1        0.0608
     22 C         138.7377  139.8887  169.3400 C.ar    1  UNL1        0.1071
     23 N         137.7224  139.0091  168.6726 N.ar    1  UNL1       -0.2417
     24 C         137.7719  138.7994  167.1881 C.ar    1  UNL1        0.0989
     25 C         138.8367  139.4693  166.3711 C.ar    1  UNL1        0.0198
     26 C         139.8520  140.3489  167.0387 C.ar    1  UNL1        0.0113
     27 C         142.8484  143.1973  170.5255 C.3     1  UNL1        0.0903
     28 C         141.8331  142.3177  169.8581 C.1     1  UNL1       -0.0853
     29 C         140.8178  141.4381  169.1905 C.1     1  UNL1       -0.0628
     30 C         138.8439  139.5739  158.0201 C.3     1  UNL1        0.0438
     31 C         140.1255  139.1526  157.3646 C.3     1  UNL1        0.0037
     32 C         141.4412  139.5637  157.9563 C.3     1  UNL1        0.0001
@<TRIPOS>BOND
     1    27    28    1
     2    28    29    3
     3    29    21    1
     4    21    22   ar
     5    22    23   ar
     6    23    24   ar
     7    24    25   ar
     8    25     1    1
     9     1     2   ar
    10     2     3   ar
    11     3     4   ar
    12     4     5   ar
    13     5     6   ar
    14     5     7    1
    15     7     8    1
    16     8     9    1
    17     9    10    1
    18    10    11    1
    19    10    12    2
    20     7    13    1
    21    13    14    1
    22    14    15    1
    23    15    16    1
    24    13    17    1
    25    17    30    1
    26    30    31    1
    27    31    32    1
    28    17    18    1
    29    25    26   ar
    30    26    21   ar
    31     6     1   ar
    32    12     7    1
    33    16    13    1
    34    18     4    1
    35    11    19    1
    36    11    20    1
@<TRIPOS>MOLECULE
*****
 32 36 0 0 0
SMALL
GASTEIGER

@<TRIPOS>ATOM
      1 C         141.1872  144.0725  162.0673 C.ar    1  UNL1        0.0015
      2 C         140.0704  144.9072  162.6207 C.ar    1  UNL1        0.0031
      3 C         139.6592  144.7538  164.0550 C.ar    1  UNL1        0.0366
      4 C         140.3646  143.7657  164.9360 C.ar    1  UNL1        0.1362
      5 C         141.4812  142.9310  164.3826 C.ar    1  UNL1        0.0357
      6 C         141.8925  143.0844  162.9482 C.ar    1  UNL1        0.0007
      7 C         142.1866  141.9429  165.2636 C.3     1  UNL1        0.1582
      8 C         142.9804  140.9191  166.0197 C.3     1  UNL1        0.2351
      9 O         143.9900  140.3288  165.0803 O.2     1  UNL1       -0.4478
     10 C         143.8202  140.9878  163.7436 C.2     1  UNL1        0.2770
     11 N         144.6238  140.6999  162.5103 N.pl3   1  UNL1       -0.3133
     12 N         142.7057  141.9854  163.8568 N.2     1  UNL1       -0.2202
     13 C         141.7753  141.7895  166.6979 C.3     1  UNL1        0.1174
     14 C         141.5785  142.0652  166.4521 C.3     1  UNL1        0.1502
     15 O         141.7854  141.7754  166.7104 O.3     1  UNL1       -0.3532
     16 C         141.5785  142.0652  166.4521 C.3     1  UNL1        0.1502
     17 C         140.6587  142.6242  167.2512 C.3     1  UNL1        0.1726
     18 O         139.9533  143.6123  166.3703 O.3     1  UNL1       -0.4792
     19 H         145.3387  140.0235  162.5353 H       1  UNL1        0.1466
     20 H         144.4363  141.1874  161.6757 H       1  UNL1        0.1466
     21 C         141.2040  145.2450  158.2759 C.ar    1  UNL1        0.0608
     22 C         142.4209  144.5327  157.7643 C.ar    1  UNL1        0.1071
     23 N         143.2266  143.6670  158.6870 N.ar    1  UNL1       -0.2417
     24 C         142.8153  143.5135  160.1214 C.ar    1  UNL1        0.0989
     25 C         141.5984  144.2259  160.6330 C.ar    1  UNL1        0.0198
     26 C         140.7928  145.0916  159.7102 C.ar    1  UNL1        0.0113
     27 C         138.7871  147.8422  155.5077 C.3     1  UNL1        0.0903
     28 C         139.5927  146.9765  156.4304 C.1     1  UNL1       -0.0853
     29 C         140.3984  146.1107  157.3532 C.1     1  UNL1       -0.0628
     30 C         140.2474  142.4709  168.6856 C.3     1  UNL1        0.0438
     31 C         140.7617  143.4279  169.7198 C.3     1  UNL1        0.0037
     32 C         142.1489  143.2664  170.2672 C.3     1  UNL1        0.0001
@<TRIPOS>BOND
     1    27    28    1
     2    28    29    3
     3    29    21    1
     4    21    22   ar
     5    22    23   ar
     6    23    24   ar
     7    24    25   ar
     8    25     1    1
     9     1     2   ar
    10     2     3   ar
    11     3     4   ar
    12     4     5   ar
    13     5     6   ar
    14     5     7    1
    15     7     8    1
    16     8     9    1
    17     9    10    1
    18    10    11    1
    19    10    12    2
    20     7    13    1
    21    13    14    1
    22    14    15    1
    23    15    16    1
    24    13    17    1
    25    17    30    1
    26    30    31    1
    27    31    32    1
    28    17    18    1
    29    25    26   ar
    30    26    21   ar
    31     6     1   ar
    32    12     7    1
    33    16    13    1
    34    18     4    1
    35    11    19    1
    36    11    20    1
@<TRIPOS>MOLECULE
*****
 32 36 0 0 0
SMALL
GASTEIGER

@<TRIPOS>ATOM
      1 C         141.6532  143.9358  158.1541 C.ar    1  UNL1        0.0015
      2 C         142.7832  143.0193  157.7891 C.ar    1  UNL1        0.0031
      3 C         143.7339  142.5427  158.8470 C.ar    1  UNL1        0.0366
      4 C         143.5545  142.9825  160.2698 C.ar    1  UNL1        0.1362
      5 C         142.4246  143.8990  160.6347 C.ar    1  UNL1        0.0357
      6 C         141.4739  144.3757  159.5769 C.ar    1  UNL1        0.0007
      7 C         142.2453  144.3389  162.0576 C.3     1  UNL1        0.1582
      8 C         141.9414  144.8604  163.4308 C.3     1  UNL1        0.2351
      9 O         140.7290  145.7387  163.3353 O.2     1  UNL1       -0.4478
     10 C         140.2837  145.7599  161.9031 C.2     1  UNL1        0.2770
     11 N         139.1078  146.5138  161.3565 N.pl3   1  UNL1       -0.3133
     12 N         141.2207  144.8948  161.1134 N.2     1  UNL1       -0.2202
     13 C         143.1959  143.8623  163.1154 C.3     1  UNL1        0.1174
     14 C         143.2459  143.7395  162.7184 C.3     1  UNL1        0.1502
     15 O         143.1933  143.8685  163.1357 O.3     1  UNL1       -0.3532
     16 C         143.2459  143.7395  162.7184 C.3     1  UNL1        0.1502
     17 C         144.3259  142.9458  162.7504 C.3     1  UNL1        0.1726
     18 O         144.5052  142.5059  161.3276 O.3     1  UNL1       -0.4792
     19 H         138.5492  147.0576  161.9577 H       1  UNL1        0.1466
     20 H         138.8946  146.4648  160.3966 H       1  UNL1        0.1466
     21 C         139.4126  146.3467  155.9366 C.ar    1  UNL1        0.0608
     22 C         138.8013  145.3657  154.9805 C.ar    1  UNL1        0.1071
     23 N         139.1406  143.9082  155.0822 N.ar    1  UNL1       -0.2417
     24 C         140.0913  143.4315  156.1401 C.ar    1  UNL1        0.0989
     25 C         140.7026  144.4124  157.0962 C.ar    1  UNL1        0.0198
     26 C         140.3632  145.8701  156.9944 C.ar    1  UNL1        0.0113
     27 C         138.3946  150.7194  155.6313 C.3     1  UNL1        0.0903
     28 C         138.7339  149.2618  155.7331 C.1     1  UNL1       -0.0853
     29 C         139.0733  147.8042  155.8348 C.1     1  UNL1       -0.0628
     30 C         145.2766  142.4691  163.8083 C.3     1  UNL1        0.0438
     31 C         145.6558  141.0195  163.8778 C.3     1  UNL1        0.0037
     32 C         144.5942  139.9741  164.0519 C.3     1  UNL1        0.0001
@<TRIPOS>BOND
     1    27    28    1
     2    28    29    3
     3    29    21    1
     4    21    22   ar
     5    22    23   ar
     6    23    24   ar
     7    24    25   ar
     8    25     1    1
     9     1     2   ar
    10     2     3   ar
    11     3     4   ar
    12     4     5   ar
    13     5     6   ar
    14     5     7    1
    15     7     8    1
    16     8     9    1
    17     9    10    1
    18    10    11    1
    19    10    12    2
    20     7    13    1
    21    13    14    1
    22    14    15    1
    23    15    16    1
    24    13    17    1
    25    17    30    1
    26    30    31    1
    27    31    32    1
    28    17    18    1
    29    25    26   ar
    30    26    21   ar
    31     6     1   ar
    32    12     7    1
    33    16    13    1
    34    18     4    1
    35    11    19    1
    36    11    20    1
@<TRIPOS>MOLECULE
*****
 32 36 0 0 0
SMALL
GASTEIGER

@<TRIPOS>ATOM
      1 C         142.8460  142.6834  161.9120 C.ar    1  UNL1        0.0015
      2 C         143.8777  141.8319  162.5906 C.ar    1  UNL1        0.0031
      3 C         143.7482  141.5181  164.0516 C.ar    1  UNL1        0.0366
      4 C         142.5870  142.0558  164.8342 C.ar    1  UNL1        0.1362
      5 C         141.5552  142.9073  164.1556 C.ar    1  UNL1        0.0357
      6 C         141.6847  143.2211  162.6945 C.ar    1  UNL1        0.0007
      7 C         140.3940  143.4450  164.9382 C.3     1  UNL1        0.1582
      8 C         139.1846  144.0501  165.5873 C.3     1  UNL1        0.2351
      9 O         138.4336  144.8200  164.5416 O.2     1  UNL1       -0.4478
     10 C         139.1788  144.6907  163.2463 C.2     1  UNL1        0.2770
     11 N         138.7821  145.3036  161.9360 N.pl3   1  UNL1       -0.3133
     12 N         140.3904  143.8409  163.4913 N.2     1  UNL1       -0.2202
     13 C         140.2644  143.1312  166.3992 C.3     1  UNL1        0.1174
     14 C         140.5884  142.9812  166.1809 C.3     1  UNL1        0.1502
     15 O         140.2479  143.1389  166.4104 O.3     1  UNL1       -0.3532
     16 C         140.5884  142.9812  166.1809 C.3     1  UNL1        0.1502
     17 C         141.2962  142.2797  167.0777 C.3     1  UNL1        0.1726
     18 O         142.4574  141.7420  166.2952 O.3     1  UNL1       -0.4792
     19 H         137.9646  145.8486  161.8749 H       1  UNL1        0.1466
     20 H         139.3394  145.1607  161.1370 H       1  UNL1        0.1466
     21 C         142.1478  144.2657  158.3400 C.ar    1  UNL1        0.0608
     22 C         143.2345  143.6247  157.5287 C.ar    1  UNL1        0.1071
     23 N         144.1917  142.6700  158.1785 N.ar    1  UNL1       -0.2417
     24 C         144.0622  142.3562  159.6396 C.ar    1  UNL1        0.0989
     25 C         142.9755  142.9971  160.4509 C.ar    1  UNL1        0.0198
     26 C         142.0183  143.9519  159.8011 C.ar    1  UNL1        0.0113
     27 C         139.2761  147.1299  156.3908 C.3     1  UNL1        0.0903
     28 C         140.2333  146.1752  157.0405 C.1     1  UNL1       -0.0853
     29 C         141.1906  145.2204  157.6903 C.1     1  UNL1       -0.0628
     30 C         141.1667  141.9659  168.5389 C.3     1  UNL1        0.0438
     31 C         142.0798  142.6231  169.5309 C.3     1  UNL1        0.0037
     32 C         143.5432  142.2932  169.5366 C.3     1  UNL1        0.0001
@<TRIPOS>BOND
     1    27    28    1
     2    28    29    3
     3    29    21    1
     4    21    22   ar
     5    22    23   ar
     6    23    24   ar
     7    24    25   ar
     8    25     1    1
     9     1     2   ar
    10     2     3   ar
    11     3     4   ar
    12     4     5   ar
    13     5     6   ar
    14     5     7    1
    15     7     8    1
    16     8     9    1
    17     9    10    1
    18    10    11    1
    19    10    12    2
    20     7    13    1
    21    13    14    1
    22    14    15    1
    23    15    16    1
    24    13    17    1
    25    17    30    1
    26    30    31    1
    27    31    32    1
    28    17    18    1
    29    25    26   ar
    30    26    21   ar
    31     6     1   ar
    32    12     7    1
    33    16    13    1
    34    18     4    1
    35    11    19    1
    36    11    20    1
@<TRIPOS>MOLECULE
*****
 32 36 0 0 0
SMALL
GASTEIGER

@<TRIPOS>ATOM
      1 C         141.2798  138.9263  160.4984 C.ar    1  UNL1        0.0015
      2 C         141.7825  137.8068  161.3610 C.ar    1  UNL1        0.0031
      3 C         141.2315  137.6195  162.7434 C.ar    1  UNL1        0.0366
      4 C         140.1776  138.5517  163.2634 C.ar    1  UNL1        0.1362
      5 C         139.6748  139.6712  162.4009 C.ar    1  UNL1        0.0357
      6 C         140.2259  139.8585  161.0184 C.ar    1  UNL1        0.0007
      7 C         138.6210  140.6034  162.9208 C.3     1  UNL1        0.1582
      8 C         137.5758  141.6094  163.3025 C.3     1  UNL1        0.2351
      9 O         137.3839  142.5412  162.1427 O.2     1  UNL1       -0.4478
     10 C         138.3105  142.1112  161.0444 C.2     1  UNL1        0.2770
     11 N         138.4484  142.7641  159.7010 N.pl3   1  UNL1       -0.3133
     12 N         139.0751  140.9135  161.5252 N.2     1  UNL1       -0.2202
     13 C         138.0699  140.4161  164.3033 C.3     1  UNL1        0.1174
     14 C         138.3639  140.1560  164.1582 C.3     1  UNL1        0.1502
     15 O         138.0548  140.4294  164.3107 O.3     1  UNL1       -0.3532
     16 C         138.3639  140.1560  164.1582 C.3     1  UNL1        0.1502
     17 C         138.5727  139.2966  165.1658 C.3     1  UNL1        0.1726
     18 O         139.6265  138.3644  164.6458 O.3     1  UNL1       -0.4792
     19 H         137.8996  143.5501  159.4771 H       1  UNL1        0.1466
     20 H         139.0877  142.4065  159.0433 H       1  UNL1        0.1466
     21 C         143.5826  140.1735  157.5165 C.ar    1  UNL1        0.0608
     22 C         142.9331  139.4882  156.3510 C.ar    1  UNL1        0.1071
     23 N         141.7325  138.6156  156.5679 N.ar    1  UNL1       -0.2417
     24 C         141.1813  138.4282  157.9504 C.ar    1  UNL1        0.0989
     25 C         141.8308  139.1136  159.1160 C.ar    1  UNL1        0.0198
     26 C         143.0315  139.9862  158.8990 C.ar    1  UNL1        0.0113
     27 C         147.1844  142.7914  156.8659 C.3     1  UNL1        0.0903
     28 C         145.9838  141.9188  157.0828 C.1     1  UNL1       -0.0853
     29 C         144.7831  141.0461  157.2996 C.1     1  UNL1       -0.0628
     30 C         138.0216  139.1093  166.5483 C.3     1  UNL1        0.0438
     31 C         138.8502  139.4795  167.7425 C.3     1  UNL1        0.0037
     32 C         139.8495  140.5941  167.6457 C.3     1  UNL1        0.0001
@<TRIPOS>BOND
     1    27    28    1
     2    28    29    3
     3    29    21    1
     4    21    22   ar
     5    22    23   ar
     6    23    24   ar
     7    24    25   ar
     8    25     1    1
     9     1     2   ar
    10     2     3   ar
    11     3     4   ar
    12     4     5   ar
    13     5     6   ar
    14     5     7    1
    15     7     8    1
    16     8     9    1
    17     9    10    1
    18    10    11    1
    19    10    12    2
    20     7    13    1
    21    13    14    1
    22    14    15    1
    23    15    16    1
    24    13    17    1
    25    17    30    1
    26    30    31    1
    27    31    32    1
    28    17    18    1
    29    25    26   ar
    30    26    21   ar
    31     6     1   ar
    32    12     7    1
    33    16    13    1
    34    18     4    1
    35    11    19    1
    36    11    20    1
