@<TRIPOS>MOLECULE
*****
 39 41 0 0 0
SMALL
GASTEIGER

@<TRIPOS>ATOM
      1 C         139.5547  139.0615  160.2578 C.ar    1  UNL1        0.0597
      2 C         139.4894  138.2380  161.5098 C.ar    1  UNL1        0.0422
      3 C         138.8003  138.7781  162.7276 C.ar    1  UNL1        0.1485
      4 C         138.1763  140.1418  162.6935 C.ar    1  UNL1        0.0743
      5 C         138.2415  140.9653  161.4415 C.ar    1  UNL1        0.1417
      6 C         138.9307  140.4252  160.2237 C.ar    1  UNL1        0.0416
      7 N         141.7410  138.4377  159.0004 N.am    1  UNL1       -0.2644
      8 C         140.2439  138.5214  159.0398 C.2     1  UNL1        0.2508
      9 O         139.4359  138.0651  157.8613 O.2     1  UNL1       -0.2698
     10 H         142.2713  138.7372  159.7739 H       1  UNL1        0.1566
     11 N         143.3849  136.3674  156.1584 N.ar    1  UNL1       -0.2382
     12 C         143.5965  137.7656  155.6581 C.ar    1  UNL1        0.0987
     13 C         143.0064  138.7114  156.6618 C.ar    1  UNL1        0.0565
     14 C         142.4302  137.8976  157.7824 C.ar    1  UNL1        0.1557
     15 N         142.6641  136.4490  157.4713 N.ar    1  UNL1       -0.1535
     16 C         143.8181  135.1087  155.4672 C.3     1  UNL1        0.2135
     17 P         142.9063  133.9180  155.4364 P.3     1  UNL1        0.2472
     18 C         141.9945  132.7273  155.4055 C.3     1  UNL1        0.0992
     19 O         141.8065  134.7747  154.8827 O.2     1  UNL1       -0.2875
     20 O         144.0062  133.0614  155.9900 O.3     1  UNL1       -0.3120
     21 C         145.4108  132.2319  158.0121 C.3     1  UNL1        0.0351
     22 C         144.3129  133.0907  157.4580 C.3     1  UNL1        0.1494
     23 O         138.7350  137.9546  163.9797 O.3     1  UNL1       -0.4534
     24 C         139.0397  138.5829  165.3073 C.ar    1  UNL1        0.1454
     25 C         140.4088  139.1311  165.5811 C.ar    1  UNL1        0.0388
     26 C         140.7135  139.7593  166.9087 C.ar    1  UNL1        0.0215
     27 C         139.6490  139.8393  167.9625 C.ar    1  UNL1        0.1059
     28 C         138.2799  139.2911  167.6887 C.ar    1  UNL1        0.0215
     29 C         137.9752  138.6629  166.3611 C.ar    1  UNL1        0.0388
     30 S         139.9536  140.4676  169.2901 S.O2    1  UNL1        0.0105
     31 C         140.2583  141.0958  170.6177 C.3     1  UNL1        0.1816
     32 O         141.2251  141.0335  168.7305 O.2     1  UNL1       -0.1686
     33 O         138.6821  139.9017  169.8496 O.2     1  UNL1       -0.1686
     34 O         137.6176  142.3289  161.4074 O.3     1  UNL1       -0.4765
     35 C         138.2988  143.4825  162.0820 C.3     1  UNL1        0.1954
     36 C         139.5668  144.0435  161.5099 C.3     1  UNL1        0.0500
     37 C         137.7120  144.0752  163.3288 C.3     1  UNL1        0.1855
     38 O         137.7641  143.3114  164.6187 O.3     1  UNL1       -0.3473
     39 C         139.0544  142.6973  165.0751 C.3     1  UNL1        0.1743
@<TRIPOS>BOND
     1    21    22    1
     2    22    20    1
     3    20    17    1
     4    17    18    1
     5    17    19    2
     6    17    16    1
     7    16    11    1
     8    11    12   ar
     9    12    13   ar
    10    13    14   ar
    11    14     7    1
    12     7     8   am
    13     8     9    2
    14     8     1    1
    15     1     2   ar
    16     2     3   ar
    17     3    23    1
    18    23    24    1
    19    24    25   ar
    20    25    26   ar
    21    26    27   ar
    22    27    30    1
    23    30    31    1
    24    30    32    2
    25    30    33    2
    26    27    28   ar
    27    28    29   ar
    28     3     4   ar
    29     4     5   ar
    30     5    34    1
    31    34    35    1
    32    35    36    1
    33    35    37    1
    34    37    38    1
    35    38    39    1
    36     5     6   ar
    37    14    15   ar
    38    15    11   ar
    39     6     1   ar
    40    29    24   ar
    41     7    10    1
@<TRIPOS>MOLECULE
*****
 39 41 0 0 0
SMALL
GASTEIGER

@<TRIPOS>ATOM
      1 C         139.4663  139.4528  160.3681 C.ar    1  UNL1        0.0597
      2 C         139.3041  138.6049  161.5948 C.ar    1  UNL1        0.0422
      3 C         138.6087  139.1588  162.8028 C.ar    1  UNL1        0.1485
      4 C         138.0753  140.5607  162.7842 C.ar    1  UNL1        0.0743
      5 C         138.2374  141.4086  161.5576 C.ar    1  UNL1        0.1417
      6 C         138.9329  140.8546  160.3495 C.ar    1  UNL1        0.0416
      7 N         141.6515  138.7240  159.1666 N.am    1  UNL1       -0.2644
      8 C         140.1618  138.8989  159.1600 C.2     1  UNL1        0.2508
      9 O         139.3675  138.5199  157.9453 O.2     1  UNL1       -0.2698
     10 H         142.1728  138.9727  159.9638 H       1  UNL1        0.1566
     11 N         143.3554  136.6254  156.3812 N.ar    1  UNL1       -0.2382
     12 C         143.4790  138.0100  155.8175 C.ar    1  UNL1        0.0987
     13 C         142.8557  138.9647  156.7924 C.ar    1  UNL1        0.0565
     14 C         142.3470  138.1700  157.9584 C.ar    1  UNL1        0.1557
     15 N         142.6558  136.7244  157.7043 N.ar    1  UNL1       -0.1535
     16 C         143.8455  135.3636  155.7352 C.3     1  UNL1        0.2135
     17 P         143.1613  134.0597  156.0215 P.3     1  UNL1        0.2472
     18 C         142.4773  132.7559  156.3078 C.3     1  UNL1        0.0992
     19 O         144.2956  133.6617  156.9187 O.2     1  UNL1       -0.2875
     20 O         142.0271  134.4577  155.1242 O.3     1  UNL1       -0.3120
     21 C         141.7784  135.0790  152.6139 C.3     1  UNL1        0.0351
     22 C         142.0371  134.0553  153.6793 C.3     1  UNL1        0.1494
     23 O         138.4465  138.3109  164.0296 O.3     1  UNL1       -0.4534
     24 C         138.8839  138.8336  165.3658 C.ar    1  UNL1        0.1454
     25 C         140.2732  139.3709  165.5427 C.ar    1  UNL1        0.0388
     26 C         140.7106  139.8937  166.8789 C.ar    1  UNL1        0.0215
     27 C         139.7587  139.8791  168.0382 C.ar    1  UNL1        0.1059
     28 C         138.3695  139.3418  167.8612 C.ar    1  UNL1        0.0215
     29 C         137.9321  138.8190  166.5250 C.ar    1  UNL1        0.0388
     30 S         140.1961  140.4018  169.3744 S.O2    1  UNL1        0.0105
     31 C         140.6336  140.9245  170.7106 C.3     1  UNL1        0.1816
     32 O         138.7625  140.5059  169.8029 O.2     1  UNL1       -0.1686
     33 O         141.6298  140.2977  168.9458 O.2     1  UNL1       -0.1686
     34 O         137.7041  142.8104  161.5390 O.3     1  UNL1       -0.4765
     35 C         138.2839  143.8457  162.4565 C.3     1  UNL1        0.1954
     36 C         137.6178  144.1440  163.7670 C.3     1  UNL1        0.0500
     37 C         139.5299  144.5828  162.0636 C.3     1  UNL1        0.1855
     38 O         139.5414  145.4297  160.8256 O.3     1  UNL1       -0.3473
     39 C         140.2684  144.9584  159.6011 C.3     1  UNL1        0.1743
@<TRIPOS>BOND
     1    21    22    1
     2    22    20    1
     3    20    17    1
     4    17    18    1
     5    17    19    2
     6    17    16    1
     7    16    11    1
     8    11    12   ar
     9    12    13   ar
    10    13    14   ar
    11    14     7    1
    12     7     8   am
    13     8     9    2
    14     8     1    1
    15     1     2   ar
    16     2     3   ar
    17     3    23    1
    18    23    24    1
    19    24    25   ar
    20    25    26   ar
    21    26    27   ar
    22    27    30    1
    23    30    31    1
    24    30    32    2
    25    30    33    2
    26    27    28   ar
    27    28    29   ar
    28     3     4   ar
    29     4     5   ar
    30     5    34    1
    31    34    35    1
    32    35    36    1
    33    35    37    1
    34    37    38    1
    35    38    39    1
    36     5     6   ar
    37    14    15   ar
    38    15    11   ar
    39     6     1   ar
    40    29    24   ar
    41     7    10    1
@<TRIPOS>MOLECULE
*****
 39 41 0 0 0
SMALL
GASTEIGER

@<TRIPOS>ATOM
      1 C         141.7073  139.8358  160.5793 C.ar    1  UNL1        0.0597
      2 C         140.9868  139.3372  161.7967 C.ar    1  UNL1        0.0422
      3 C         140.2941  140.3067  162.7079 C.ar    1  UNL1        0.1485
      4 C         140.3220  141.7748  162.4016 C.ar    1  UNL1        0.0743
      5 C         141.0426  142.2735  161.1842 C.ar    1  UNL1        0.1417
      6 C         141.7352  141.3040  160.2731 C.ar    1  UNL1        0.0416
      7 N         142.0630  138.8387  158.2067 N.am    1  UNL1       -0.2644
      8 C         142.4000  138.8663  159.6680 C.2     1  UNL1        0.2508
      9 O         143.4297  137.9245  160.2182 O.2     1  UNL1       -0.2698
     10 H         141.3872  139.4568  157.8456 H       1  UNL1        0.1566
     11 N         143.5290  135.8050  156.2796 N.ar    1  UNL1       -0.2382
     12 C         144.1143  136.9497  155.5067 C.ar    1  UNL1        0.0987
     13 C         143.6363  138.2254  156.1346 C.ar    1  UNL1        0.0565
     14 C         142.7557  137.8692  157.2954 C.ar    1  UNL1        0.1557
     15 N         142.6894  136.3733  157.3851 N.ar    1  UNL1       -0.1535
     16 C         143.7454  134.3480  155.9967 C.3     1  UNL1        0.2135
     17 P         142.5812  133.4724  155.6390 P.3     1  UNL1        0.2472
     18 C         141.4170  132.5968  155.2813 C.3     1  UNL1        0.0992
     19 O         142.4784  134.1535  154.3065 O.2     1  UNL1       -0.2875
     20 O         142.6839  132.7913  156.9715 O.3     1  UNL1       -0.3120
     21 C         144.5201  131.0773  157.6350 C.3     1  UNL1        0.0351
     22 C         143.1695  131.3745  157.0542 C.3     1  UNL1        0.1494
     23 O         139.5735  139.8080  163.9253 O.3     1  UNL1       -0.4534
     24 C         140.2465  139.8508  165.2652 C.ar    1  UNL1        0.1454
     25 C         139.4838  140.3081  166.4733 C.ar    1  UNL1        0.0388
     26 C         140.1567  140.3509  167.8132 C.ar    1  UNL1        0.0215
     27 C         141.5924  139.9365  167.9450 C.ar    1  UNL1        0.1059
     28 C         142.3550  139.4793  166.7370 C.ar    1  UNL1        0.0215
     29 C         141.6820  139.4365  165.3971 C.ar    1  UNL1        0.0388
     30 S         142.2653  139.9793  169.2849 S.O2    1  UNL1        0.0105
     31 C         142.9383  140.0222  170.6248 C.3     1  UNL1        0.1816
     32 O         141.4947  141.2185  169.6323 O.2     1  UNL1       -0.1686
     33 O         143.0359  138.7402  168.9375 O.2     1  UNL1       -0.1686
     34 O         141.0705  143.7416  160.8780 O.3     1  UNL1       -0.4765
     35 C         141.1947  144.7379  161.9924 C.3     1  UNL1        0.1954
     36 C         140.1469  145.7961  162.1726 C.3     1  UNL1        0.0500
     37 C         142.3666  144.6761  162.9266 C.3     1  UNL1        0.1855
     38 O         143.7634  144.7191  162.3815 O.3     1  UNL1       -0.3473
     39 C         144.4626  143.4454  162.0089 C.3     1  UNL1        0.1743
@<TRIPOS>BOND
     1    21    22    1
     2    22    20    1
     3    20    17    1
     4    17    18    1
     5    17    19    2
     6    17    16    1
     7    16    11    1
     8    11    12   ar
     9    12    13   ar
    10    13    14   ar
    11    14     7    1
    12     7     8   am
    13     8     9    2
    14     8     1    1
    15     1     2   ar
    16     2     3   ar
    17     3    23    1
    18    23    24    1
    19    24    25   ar
    20    25    26   ar
    21    26    27   ar
    22    27    30    1
    23    30    31    1
    24    30    32    2
    25    30    33    2
    26    27    28   ar
    27    28    29   ar
    28     3     4   ar
    29     4     5   ar
    30     5    34    1
    31    34    35    1
    32    35    36    1
    33    35    37    1
    34    37    38    1
    35    38    39    1
    36     5     6   ar
    37    14    15   ar
    38    15    11   ar
    39     6     1   ar
    40    29    24   ar
    41     7    10    1
@<TRIPOS>MOLECULE
*****
 39 41 0 0 0
SMALL
GASTEIGER

@<TRIPOS>ATOM
      1 C         140.2616  140.3280  160.6271 C.ar    1  UNL1        0.0597
      2 C         139.3828  140.8775  161.7114 C.ar    1  UNL1        0.0422
      3 C         139.9813  141.2976  163.0210 C.ar    1  UNL1        0.1485
      4 C         141.4586  141.1683  163.2464 C.ar    1  UNL1        0.0743
      5 C         142.3374  140.6188  162.1621 C.ar    1  UNL1        0.1417
      6 C         141.7389  140.1987  160.8525 C.ar    1  UNL1        0.0416
      7 N         139.1548  140.9432  158.3585 N.am    1  UNL1       -0.2644
      8 C         139.6631  139.9078  159.3174 C.2     1  UNL1        0.2508
      9 O         139.5729  138.4522  158.9667 O.2     1  UNL1       -0.2698
     10 H         139.2140  141.8986  158.5887 H       1  UNL1        0.1566
     11 N         136.9487  139.9284  155.3305 N.ar    1  UNL1       -0.2382
     12 C         138.3222  139.8244  154.7362 C.ar    1  UNL1        0.0987
     13 C         139.3157  140.1919  155.7983 C.ar    1  UNL1        0.0565
     14 C         138.5563  140.5230  157.0488 C.ar    1  UNL1        0.1557
     15 N         137.0935  140.3601  156.7597 N.ar    1  UNL1       -0.1535
     16 C         135.6574  139.6496  154.6202 C.3     1  UNL1        0.2135
     17 P         134.4038  140.3605  155.0363 P.3     1  UNL1        0.2472
     18 C         133.1502  141.0714  155.4524 C.3     1  UNL1        0.0992
     19 O         134.7089  141.4650  154.0682 O.2     1  UNL1       -0.2875
     20 O         134.0987  139.2560  156.0043 O.3     1  UNL1       -0.3120
     21 C         132.9200  138.4784  158.1851 C.3     1  UNL1        0.0351
     22 C         133.4993  139.5753  157.3418 C.3     1  UNL1        0.1494
     23 O         139.1025  141.8472  164.1054 O.3     1  UNL1       -0.4534
     24 C         139.4898  141.6747  165.5442 C.ar    1  UNL1        0.1454
     25 C         139.2480  140.3649  166.2342 C.ar    1  UNL1        0.0388
     26 C         139.6354  140.1924  167.6730 C.ar    1  UNL1        0.0215
     27 C         140.2645  141.3297  168.4219 C.ar    1  UNL1        0.1059
     28 C         140.5063  142.6395  167.7319 C.ar    1  UNL1        0.0215
     29 C         140.1189  142.8119  166.2931 C.ar    1  UNL1        0.0388
     30 S         140.6519  141.1573  169.8607 S.O2    1  UNL1        0.0105
     31 C         141.0393  140.9848  171.2995 C.3     1  UNL1        0.1816
     32 O         139.2051  141.1961  170.2548 O.2     1  UNL1       -0.1686
     33 O         142.0987  141.1184  169.4665 O.2     1  UNL1       -0.1686
     34 O         143.8148  140.4895  162.3875 O.3     1  UNL1       -0.4765
     35 C         144.6582  141.7184  162.5557 C.3     1  UNL1        0.1954
     36 C         145.7746  141.7305  163.5574 C.3     1  UNL1        0.0500
     37 C         144.3852  142.9353  161.7221 C.3     1  UNL1        0.1855
     38 O         144.5990  144.3031  162.2993 O.3     1  UNL1       -0.3473
     39 C         143.6228  144.8586  163.2936 C.3     1  UNL1        0.1743
@<TRIPOS>BOND
     1    21    22    1
     2    22    20    1
     3    20    17    1
     4    17    18    1
     5    17    19    2
     6    17    16    1
     7    16    11    1
     8    11    12   ar
     9    12    13   ar
    10    13    14   ar
    11    14     7    1
    12     7     8   am
    13     8     9    2
    14     8     1    1
    15     1     2   ar
    16     2     3   ar
    17     3    23    1
    18    23    24    1
    19    24    25   ar
    20    25    26   ar
    21    26    27   ar
    22    27    30    1
    23    30    31    1
    24    30    32    2
    25    30    33    2
    26    27    28   ar
    27    28    29   ar
    28     3     4   ar
    29     4     5   ar
    30     5    34    1
    31    34    35    1
    32    35    36    1
    33    35    37    1
    34    37    38    1
    35    38    39    1
    36     5     6   ar
    37    14    15   ar
    38    15    11   ar
    39     6     1   ar
    40    29    24   ar
    41     7    10    1
@<TRIPOS>MOLECULE
*****
 39 41 0 0 0
SMALL
GASTEIGER

@<TRIPOS>ATOM
      1 C         140.2803  139.6768  160.7503 C.ar    1  UNL1        0.0597
      2 C         140.0517  138.8071  161.9509 C.ar    1  UNL1        0.0422
      3 C         139.5372  139.4082  163.2253 C.ar    1  UNL1        0.1485
      4 C         139.2514  140.8788  163.2991 C.ar    1  UNL1        0.0743
      5 C         139.4800  141.7485  162.0985 C.ar    1  UNL1        0.1417
      6 C         139.9944  141.1475  160.8241 C.ar    1  UNL1        0.0416
      7 N         142.2689  139.0500  159.2003 N.am    1  UNL1       -0.2644
      8 C         140.7947  139.0758  159.4758 C.2     1  UNL1        0.2508
      9 O         139.8349  138.5006  158.4769 O.2     1  UNL1       -0.2698
     10 H         142.8989  139.4276  159.8560 H       1  UNL1        0.1566
     11 N         143.5129  136.8389  156.2628 N.ar    1  UNL1       -0.2382
     12 C         143.6372  138.2097  155.6666 C.ar    1  UNL1        0.0987
     13 C         143.1864  139.2049  156.6945 C.ar    1  UNL1        0.0565
     14 C         142.7834  138.4490  157.9259 C.ar    1  UNL1        0.1557
     15 N         142.9852  136.9868  157.6591 N.ar    1  UNL1       -0.1535
     16 C         143.8559  135.5470  155.5822 C.3     1  UNL1        0.2135
     17 P         142.9247  134.3754  155.6835 P.3     1  UNL1        0.2472
     18 C         141.9934  133.2039  155.7847 C.3     1  UNL1        0.0992
     19 O         141.7864  135.2413  155.2312 O.2     1  UNL1       -0.2875
     20 O         144.0630  133.5096  156.1358 O.3     1  UNL1       -0.3120
     21 C         145.3282  132.2886  158.0484 C.3     1  UNL1        0.0351
     22 C         144.2910  133.2749  157.5997 C.3     1  UNL1        0.1494
     23 O         139.3086  138.5385  164.4259 O.3     1  UNL1       -0.4534
     24 C         139.6355  139.0518  165.7969 C.ar    1  UNL1        0.1454
     25 C         141.0518  139.3974  166.1504 C.ar    1  UNL1        0.0388
     26 C         141.3787  139.9107  167.5215 C.ar    1  UNL1        0.0215
     27 C         140.2893  140.0784  168.5390 C.ar    1  UNL1        0.1059
     28 C         138.8731  139.7328  168.1854 C.ar    1  UNL1        0.0215
     29 C         138.5462  139.2195  166.8144 C.ar    1  UNL1        0.0388
     30 S         140.6162  140.5917  169.9100 S.O2    1  UNL1        0.0105
     31 C         140.9431  141.1050  171.2810 C.3     1  UNL1        0.1816
     32 O         141.8379  141.2700  169.3647 O.2     1  UNL1       -0.1686
     33 O         139.3944  139.9134  170.4552 O.2     1  UNL1       -0.1686
     34 O         139.1942  143.2191  162.1723 O.3     1  UNL1       -0.4765
     35 C         140.2965  144.1818  162.5011 C.3     1  UNL1        0.1954
     36 C         141.0881  144.0127  163.7639 C.3     1  UNL1        0.0500
     37 C         140.6071  145.3137  161.5670 C.3     1  UNL1        0.1855
     38 O         139.7399  145.5557  160.3673 O.3     1  UNL1       -0.3473
     39 C         140.3038  145.3863  158.9877 C.3     1  UNL1        0.1743
@<TRIPOS>BOND
     1    21    22    1
     2    22    20    1
     3    20    17    1
     4    17    18    1
     5    17    19    2
     6    17    16    1
     7    16    11    1
     8    11    12   ar
     9    12    13   ar
    10    13    14   ar
    11    14     7    1
    12     7     8   am
    13     8     9    2
    14     8     1    1
    15     1     2   ar
    16     2     3   ar
    17     3    23    1
    18    23    24    1
    19    24    25   ar
    20    25    26   ar
    21    26    27   ar
    22    27    30    1
    23    30    31    1
    24    30    32    2
    25    30    33    2
    26    27    28   ar
    27    28    29   ar
    28     3     4   ar
    29     4     5   ar
    30     5    34    1
    31    34    35    1
    32    35    36    1
    33    35    37    1
    34    37    38    1
    35    38    39    1
    36     5     6   ar
    37    14    15   ar
    38    15    11   ar
    39     6     1   ar
    40    29    24   ar
    41     7    10    1
@<TRIPOS>MOLECULE
*****
 39 41 0 0 0
SMALL
GASTEIGER

@<TRIPOS>ATOM
      1 C         142.4836  140.4871  159.8910 C.ar    1  UNL1        0.0597
      2 C         143.4150  140.4942  161.0667 C.ar    1  UNL1        0.0422
      3 C         143.2216  141.4911  162.1707 C.ar    1  UNL1        0.1485
      4 C         142.0967  142.4808  162.0989 C.ar    1  UNL1        0.0743
      5 C         141.1653  142.4737  160.9231 C.ar    1  UNL1        0.1417
      6 C         141.3588  141.4768  159.8192 C.ar    1  UNL1        0.0416
      7 N         141.5993  138.4932  158.4793 N.am    1  UNL1       -0.2644
      8 C         142.6770  139.4901  158.7869 C.2     1  UNL1        0.2508
      9 O         143.9481  139.4902  157.9905 O.2     1  UNL1       -0.2698
     10 H         140.7650  138.4932  159.0020 H       1  UNL1        0.1566
     11 N         142.6372  135.6327  156.0697 N.ar    1  UNL1       -0.2382
     12 C         141.5433  136.2919  155.2829 C.ar    1  UNL1        0.0987
     13 C         141.0213  137.4437  156.0899 C.ar    1  UNL1        0.0565
     14 C         141.7927  137.4963  157.3753 C.ar    1  UNL1        0.1557
     15 N         142.7913  136.3771  157.3628 N.ar    1  UNL1       -0.1535
     16 C         143.4366  134.4389  155.6390 C.3     1  UNL1        0.2135
     17 P         142.8261  133.0696  155.6892 P.3     1  UNL1        0.2472
     18 C         142.2157  131.7004  155.7393 C.3     1  UNL1        0.0992
     19 O         142.6569  133.0906  154.1989 O.2     1  UNL1       -0.2875
     20 O         142.9954  133.0487  157.1795 O.3     1  UNL1       -0.3120
     21 C         145.2001  131.9015  157.9366 C.3     1  UNL1        0.0351
     22 C         144.3670  133.1390  157.7798 C.3     1  UNL1        0.1494
     23 O         144.1530  141.4982  163.3465 O.3     1  UNL1       -0.4534
     24 C         143.6492  141.1092  164.7047 C.ar    1  UNL1        0.1454
     25 C         143.5062  139.6601  165.0649 C.ar    1  UNL1        0.0388
     26 C         143.0024  139.2711  166.4232 C.ar    1  UNL1        0.0215
     27 C         142.6416  140.3313  167.4212 C.ar    1  UNL1        0.1059
     28 C         142.7845  141.7803  167.0610 C.ar    1  UNL1        0.0215
     29 C         143.2884  142.1693  165.7027 C.ar    1  UNL1        0.0388
     30 S         142.1377  139.9423  168.7795 S.O2    1  UNL1        0.0105
     31 C         141.6339  139.5533  170.1377 C.3     1  UNL1        0.1816
     32 O         141.2155  141.1253  168.7762 O.2     1  UNL1       -0.1686
     33 O         143.0600  138.7593  168.7828 O.2     1  UNL1       -0.1686
     34 O         140.0405  143.4634  160.8514 O.3     1  UNL1       -0.4765
     35 C         140.3356  144.9217  160.6609 C.3     1  UNL1        0.1954
     36 C         140.2161  145.8685  161.8181 C.3     1  UNL1        0.0500
     37 C         140.7503  145.4332  159.3130 C.3     1  UNL1        0.1855
     38 O         142.1714  145.2811  158.8579 O.3     1  UNL1       -0.3473
     39 C         142.5123  144.2953  157.7798 C.3     1  UNL1        0.1743
@<TRIPOS>BOND
     1    21    22    1
     2    22    20    1
     3    20    17    1
     4    17    18    1
     5    17    19    2
     6    17    16    1
     7    16    11    1
     8    11    12   ar
     9    12    13   ar
    10    13    14   ar
    11    14     7    1
    12     7     8   am
    13     8     9    2
    14     8     1    1
    15     1     2   ar
    16     2     3   ar
    17     3    23    1
    18    23    24    1
    19    24    25   ar
    20    25    26   ar
    21    26    27   ar
    22    27    30    1
    23    30    31    1
    24    30    32    2
    25    30    33    2
    26    27    28   ar
    27    28    29   ar
    28     3     4   ar
    29     4     5   ar
    30     5    34    1
    31    34    35    1
    32    35    36    1
    33    35    37    1
    34    37    38    1
    35    38    39    1
    36     5     6   ar
    37    14    15   ar
    38    15    11   ar
    39     6     1   ar
    40    29    24   ar
    41     7    10    1
@<TRIPOS>MOLECULE
*****
 39 41 0 0 0
SMALL
GASTEIGER

@<TRIPOS>ATOM
      1 C         139.6398  142.9814  160.1702 C.ar    1  UNL1        0.0597
      2 C         138.8393  142.8866  161.4352 C.ar    1  UNL1        0.0422
      3 C         139.4605  143.2684  162.7460 C.ar    1  UNL1        0.1485
      4 C         140.8820  143.7451  162.7919 C.ar    1  UNL1        0.0743
      5 C         141.6824  143.8398  161.5269 C.ar    1  UNL1        0.1417
      6 C         141.0613  143.4580  160.2160 C.ar    1  UNL1        0.0416
      7 N         138.5063  141.2054  158.6499 N.am    1  UNL1       -0.2644
      8 C         139.0187  142.5995  158.8592 C.2     1  UNL1        0.2508
      9 O         138.9100  143.6118  157.7577 O.2     1  UNL1       -0.2698
     10 H         138.5776  140.5410  159.3729 H       1  UNL1        0.1566
     11 N         136.2614  140.1726  155.6566 N.ar    1  UNL1       -0.2382
     12 C         137.5976  140.2992  154.9867 C.ar    1  UNL1        0.0987
     13 C         138.6012  140.7015  156.0265 C.ar    1  UNL1        0.0565
     14 C         137.8852  140.8235  157.3390 C.ar    1  UNL1        0.1557
     15 N         136.4392  140.4967  157.1104 N.ar    1  UNL1       -0.1535
     16 C         134.9737  139.7893  154.9899 C.3     1  UNL1        0.2135
     17 P         133.7322  140.5939  155.2377 P.3     1  UNL1        0.2472
     18 C         132.4908  141.3984  155.4855 C.3     1  UNL1        0.0992
     19 O         134.1590  141.5758  154.1870 O.2     1  UNL1       -0.2875
     20 O         133.3055  139.6120  156.2883 O.3     1  UNL1       -0.3120
     21 C         131.3480  138.6999  157.7327 C.3     1  UNL1        0.0351
     22 C         132.0477  139.8495  157.0702 C.3     1  UNL1        0.1494
     23 O         138.6600  143.1737  164.0112 O.3     1  UNL1       -0.4534
     24 C         139.2143  142.4398  165.1961 C.ar    1  UNL1        0.1454
     25 C         138.9882  140.9635  165.3369 C.ar    1  UNL1        0.0388
     26 C         139.5425  140.2296  166.5219 C.ar    1  UNL1        0.0215
     27 C         140.3228  140.9719  167.5660 C.ar    1  UNL1        0.1059
     28 C         140.5489  142.4480  167.4252 C.ar    1  UNL1        0.0215
     29 C         139.9946  143.1820  166.2402 C.ar    1  UNL1        0.0388
     30 S         140.8771  140.2380  168.7510 S.O2    1  UNL1        0.0105
     31 C         141.4314  139.5040  169.9360 C.3     1  UNL1        0.1816
     32 O         142.2607  140.6817  168.3786 O.2     1  UNL1       -0.1686
     33 O         139.4935  139.7943  169.1234 O.2     1  UNL1       -0.1686
     34 O         143.1039  144.3165  161.5727 O.3     1  UNL1       -0.4765
     35 C         143.9177  144.1298  162.8188 C.3     1  UNL1        0.1954
     36 C         143.8870  145.1714  163.8978 C.3     1  UNL1        0.0500
     37 C         144.7624  142.9015  162.9860 C.3     1  UNL1        0.1855
     38 O         144.1802  141.5474  162.7077 O.3     1  UNL1       -0.3473
     39 C         144.1614  141.0127  161.3063 C.3     1  UNL1        0.1743
@<TRIPOS>BOND
     1    21    22    1
     2    22    20    1
     3    20    17    1
     4    17    18    1
     5    17    19    2
     6    17    16    1
     7    16    11    1
     8    11    12   ar
     9    12    13   ar
    10    13    14   ar
    11    14     7    1
    12     7     8   am
    13     8     9    2
    14     8     1    1
    15     1     2   ar
    16     2     3   ar
    17     3    23    1
    18    23    24    1
    19    24    25   ar
    20    25    26   ar
    21    26    27   ar
    22    27    30    1
    23    30    31    1
    24    30    32    2
    25    30    33    2
    26    27    28   ar
    27    28    29   ar
    28     3     4   ar
    29     4     5   ar
    30     5    34    1
    31    34    35    1
    32    35    36    1
    33    35    37    1
    34    37    38    1
    35    38    39    1
    36     5     6   ar
    37    14    15   ar
    38    15    11   ar
    39     6     1   ar
    40    29    24   ar
    41     7    10    1
@<TRIPOS>MOLECULE
*****
 39 41 0 0 0
SMALL
GASTEIGER

@<TRIPOS>ATOM
      1 C         137.6035  141.8069  157.4129 C.ar    1  UNL1        0.0597
      2 C         136.5499  141.0143  156.6976 C.ar    1  UNL1        0.0422
      3 C         135.9084  141.5657  155.4589 C.ar    1  UNL1        0.1485
      4 C         136.3205  142.9096  154.9355 C.ar    1  UNL1        0.0743
      5 C         137.3741  143.7022  155.6508 C.ar    1  UNL1        0.1417
      6 C         138.0156  143.1508  156.8895 C.ar    1  UNL1        0.0416
      7 N         137.8142  139.9234  159.1901 N.am    1  UNL1       -0.2644
      8 C         138.2450  141.2555  158.6517 C.2     1  UNL1        0.2508
      9 O         139.3174  142.0362  159.3520 O.2     1  UNL1       -0.2698
     10 H         137.1103  139.4110  158.7305 H       1  UNL1        0.1566
     11 N         140.0435  138.3213  161.9340 N.ar    1  UNL1       -0.2382
     12 C         138.8422  138.7259  162.7362 C.ar    1  UNL1        0.0987
     13 C         137.8609  139.3753  161.8059 C.ar    1  UNL1        0.0565
     14 C         138.4557  139.3721  160.4289 C.ar    1  UNL1        0.1557
     15 N         139.8046  138.7207  160.5081 N.ar    1  UNL1       -0.1535
     16 C         141.2684  137.6375  162.4647 C.3     1  UNL1        0.2135
     17 P         141.8269  138.0293  163.8006 P.3     1  UNL1        0.2472
     18 C         142.3854  138.4210  165.1365 C.3     1  UNL1        0.0992
     19 O         141.1843  136.8249  164.4224 O.2     1  UNL1       -0.2875
     20 O         142.4695  139.2336  163.1788 O.3     1  UNL1       -0.3120
     21 C         144.7755  140.4286  163.1104 C.3     1  UNL1        0.0351
     22 C         143.9324  139.2161  162.8475 C.3     1  UNL1        0.1494
     23 O         134.8548  140.7731  154.7435 O.3     1  UNL1       -0.4534
     24 C         133.5862  140.4006  155.4520 C.ar    1  UNL1        0.1454
     25 C         132.3821  141.2895  155.3514 C.ar    1  UNL1        0.0388
     26 C         131.1136  140.9170  156.0599 C.ar    1  UNL1        0.0215
     27 C         131.0491  139.6556  156.8690 C.ar    1  UNL1        0.1059
     28 C         132.2531  138.7667  156.9696 C.ar    1  UNL1        0.0215
     29 C         133.5217  139.1392  156.2611 C.ar    1  UNL1        0.0388
     30 S         129.7805  139.2831  157.5775 S.O2    1  UNL1        0.0105
     31 C         128.5119  138.9106  158.2860 C.3     1  UNL1        0.1816
     32 O         129.0100  140.2110  156.6858 O.2     1  UNL1       -0.1686
     33 O         130.5510  138.3551  158.4693 O.2     1  UNL1       -0.1686
     34 O         137.7862  145.0462  155.1275 O.3     1  UNL1       -0.4765
     35 C         139.1822  145.5447  155.3572 C.3     1  UNL1        0.1954
     36 C         140.3370  144.8886  154.6601 C.3     1  UNL1        0.0500
     37 C         139.4233  146.6993  156.2839 C.3     1  UNL1        0.1855
     38 O         139.1299  148.0987  155.8307 O.3     1  UNL1       -0.3473
     39 C         139.5894  148.5615  154.4799 C.3     1  UNL1        0.1743
@<TRIPOS>BOND
     1    21    22    1
     2    22    20    1
     3    20    17    1
     4    17    18    1
     5    17    19    2
     6    17    16    1
     7    16    11    1
     8    11    12   ar
     9    12    13   ar
    10    13    14   ar
    11    14     7    1
    12     7     8   am
    13     8     9    2
    14     8     1    1
    15     1     2   ar
    16     2     3   ar
    17     3    23    1
    18    23    24    1
    19    24    25   ar
    20    25    26   ar
    21    26    27   ar
    22    27    30    1
    23    30    31    1
    24    30    32    2
    25    30    33    2
    26    27    28   ar
    27    28    29   ar
    28     3     4   ar
    29     4     5   ar
    30     5    34    1
    31    34    35    1
    32    35    36    1
    33    35    37    1
    34    37    38    1
    35    38    39    1
    36     5     6   ar
    37    14    15   ar
    38    15    11   ar
    39     6     1   ar
    40    29    24   ar
    41     7    10    1
@<TRIPOS>MOLECULE
*****
 39 41 0 0 0
SMALL
GASTEIGER

@<TRIPOS>ATOM
      1 C         142.8195  140.0698  159.9676 C.ar    1  UNL1        0.0597
      2 C         143.5757  139.6104  161.1788 C.ar    1  UNL1        0.0422
      3 C         144.0195  140.6069  162.2084 C.ar    1  UNL1        0.1485
      4 C         143.7070  142.0627  162.0268 C.ar    1  UNL1        0.0743
      5 C         142.9507  142.5221  160.8157 C.ar    1  UNL1        0.1417
      6 C         142.5069  141.5256  159.7861 C.ar    1  UNL1        0.0416
      7 N         143.3600  138.5340  157.9430 N.am    1  UNL1       -0.2644
      8 C         142.3756  139.0734  158.9379 C.2     1  UNL1        0.2508
      9 O         140.9474  138.6164  158.9032 O.2     1  UNL1       -0.2698
     10 H         144.2975  138.8339  157.9658 H       1  UNL1        0.1566
     11 N         142.1862  135.4765  155.8597 N.ar    1  UNL1       -0.2382
     12 C         142.2803  136.5319  154.7979 C.ar    1  UNL1        0.0987
     13 C         142.7315  137.8057  155.4491 C.ar    1  UNL1        0.0565
     14 C         142.9162  137.5375  156.9133 C.ar    1  UNL1        0.1557
     15 N         142.5793  136.0981  157.1671 N.ar    1  UNL1       -0.1535
     16 C         141.7719  134.0502  155.6508 C.3     1  UNL1        0.2135
     17 P         142.8026  132.9604  155.6621 P.3     1  UNL1        0.2472
     18 C         143.8332  131.8706  155.6734 C.3     1  UNL1        0.0992
     19 O         142.5973  132.7816  157.1373 O.2     1  UNL1       -0.2875
     20 O         143.0078  133.1391  154.1870 O.3     1  UNL1       -0.3120
     21 C         141.4738  131.7224  152.6412 C.3     1  UNL1        0.0351
     22 C         141.8402  133.0433  153.2503 C.3     1  UNL1        0.1494
     23 O         144.7759  140.1475  163.4196 O.3     1  UNL1       -0.4534
     24 C         144.0816  140.0525  164.7459 C.ar    1  UNL1        0.1454
     25 C         143.9978  138.7337  165.4557 C.ar    1  UNL1        0.0388
     26 C         143.3035  138.6386  166.7820 C.ar    1  UNL1        0.0215
     27 C         142.6931  139.8624  167.3984 C.ar    1  UNL1        0.1059
     28 C         142.7769  141.1811  166.6886 C.ar    1  UNL1        0.0215
     29 C         143.4712  141.2761  165.3623 C.ar    1  UNL1        0.0388
     30 S         141.9988  139.7673  168.7247 S.O2    1  UNL1        0.0105
     31 C         141.3046  139.6722  170.0509 C.3     1  UNL1        0.1816
     32 O         142.9568  138.6940  169.1492 O.2     1  UNL1       -0.1686
     33 O         141.0408  140.8406  168.3001 O.2     1  UNL1       -0.1686
     34 O         142.6382  143.9779  160.6341 O.3     1  UNL1       -0.4765
     35 C         141.4932  144.5977  161.3789 C.3     1  UNL1        0.1954
     36 C         141.6842  145.0702  162.7897 C.3     1  UNL1        0.0500
     37 C         140.1573  144.7452  160.7129 C.3     1  UNL1        0.1855
     38 O         139.9626  145.7779  159.6426 O.3     1  UNL1       -0.3473
     39 C         140.2165  145.4268  158.2065 C.3     1  UNL1        0.1743
@<TRIPOS>BOND
     1    21    22    1
     2    22    20    1
     3    20    17    1
     4    17    18    1
     5    17    19    2
     6    17    16    1
     7    16    11    1
     8    11    12   ar
     9    12    13   ar
    10    13    14   ar
    11    14     7    1
    12     7     8   am
    13     8     9    2
    14     8     1    1
    15     1     2   ar
    16     2     3   ar
    17     3    23    1
    18    23    24    1
    19    24    25   ar
    20    25    26   ar
    21    26    27   ar
    22    27    30    1
    23    30    31    1
    24    30    32    2
    25    30    33    2
    26    27    28   ar
    27    28    29   ar
    28     3     4   ar
    29     4     5   ar
    30     5    34    1
    31    34    35    1
    32    35    36    1
    33    35    37    1
    34    37    38    1
    35    38    39    1
    36     5     6   ar
    37    14    15   ar
    38    15    11   ar
    39     6     1   ar
    40    29    24   ar
    41     7    10    1
