@<TRIPOS>MOLECULE
*****
 34 38 0 0 0
SMALL
GASTEIGER

@<TRIPOS>ATOM
      1 N         143.0468  141.7680  165.0329 N.ar    1  UNL1       -0.2494
      2 N         143.9495  142.8371  165.5736 N.ar    1  UNL1       -0.1677
      3 C         144.0304  143.9346  164.5544 C.ar    1  UNL1        0.1216
      4 C         143.1778  143.5439  163.3837 C.ar    1  UNL1        0.0396
      5 C         142.8765  144.2344  162.0867 C.ar    1  UNL1        0.0207
      6 C         141.9672  143.5859  161.0854 C.ar    1  UNL1        0.0670
      7 C         141.3594  142.2468  161.3811 C.ar    1  UNL1        0.0191
      8 C         141.6607  141.5563  162.6781 C.ar    1  UNL1        0.0203
      9 C         142.5699  142.2048  163.6794 C.ar    1  UNL1        0.0795
     10 N         141.6659  144.2764  159.7882 N.ar    1  UNL1       -0.2729
     11 C         142.5441  144.0460  158.5942 C.ar    1  UNL1        0.0860
     12 C         142.2428  144.7364  157.2972 C.ar    1  UNL1        0.0561
     13 C         141.0631  145.6573  157.1941 C.ar    1  UNL1        0.1453
     14 C         140.1849  145.8877  158.3881 C.ar    1  UNL1        0.0980
     15 C         140.4863  145.1972  159.6852 C.ar    1  UNL1        0.2679
     16 O         139.6081  145.4276  160.8792 O.2     1  UNL1       -0.2665
     17 O         140.7618  146.3478  155.8970 O.3     1  UNL1       -0.4704
     18 C         139.4071  146.9482  155.6640 C.3     1  UNL1        0.2320
     19 C         139.2825  148.3950  155.2885 C.ar    1  UNL1        0.0212
     20 C         138.5729  149.3488  156.2033 C.ar    1  UNL1       -0.0007
     21 C         138.4483  150.7958  155.8278 C.ar    1  UNL1       -0.0002
     22 C         139.0332  151.2888  154.5375 C.ar    1  UNL1       -0.0000
     23 C         139.7428  150.3350  153.6228 C.ar    1  UNL1       -0.0002
     24 C         139.8674  148.8881  153.9982 C.ar    1  UNL1       -0.0007
     25 C         142.6847  140.4870  165.7242 C.3     1  UNL1        0.1447
     26 C         141.6830  140.4946  166.8408 C.3     1  UNL1        0.0988
     27 C         139.2640  139.7346  167.6870 C.3     1  UNL1        0.0874
     28 C         138.1470  138.9168  167.1096 C.3     1  UNL1        0.0199
     29 C         138.5651  138.4599  165.7434 C.3     1  UNL1        0.0188
     30 C         139.9407  138.9953  165.4765 C.3     1  UNL1        0.0722
     31 N         140.3726  139.7831  166.6776 N.3     1  UNL1       -0.2700
     32 C         139.2712  140.3890  169.0367 C.3     1  UNL1        0.1581
     33 C         141.2399  140.1155  170.7098 C.3     1  UNL1        0.1742
     34 O         139.8931  139.6870  170.2072 O.3     1  UNL1       -0.3497
@<TRIPOS>BOND
     1    33    34    1
     2    34    32    1
     3    27    32    1
     4    27    28    1
     5    28    29    1
     6    29    30    1
     7    30    31    1
     8    31    26    1
     9    26    25    1
    10    25     1    1
    11     1     2   ar
    12     2     3   ar
    13     3     4   ar
    14     4     5   ar
    15     5     6   ar
    16     6    10    1
    17    10    11   ar
    18    11    12   ar
    19    12    13   ar
    20    13    17    1
    21    17    18    1
    22    18    19    1
    23    19    20   ar
    24    20    21   ar
    25    21    22   ar
    26    22    23   ar
    27    23    24   ar
    28    13    14   ar
    29    14    15   ar
    30    15    16    2
    31     6     7   ar
    32     7     8   ar
    33     8     9   ar
    34    31    27    1
    35     9     1   ar
    36     9     4   ar
    37    15    10   ar
    38    24    19   ar
@<TRIPOS>MOLECULE
*****
 34 38 0 0 0
SMALL
GASTEIGER

@<TRIPOS>ATOM
      1 N         138.1112  141.5411  161.9336 N.ar    1  UNL1       -0.2494
      2 N         137.6833  140.4901  162.9146 N.ar    1  UNL1       -0.1677
      3 C         138.1502  139.1600  162.4019 C.ar    1  UNL1        0.1216
      4 C         138.8666  139.3890  161.1040 C.ar    1  UNL1        0.0396
      5 C         139.5377  138.4476  160.1484 C.ar    1  UNL1        0.0207
      6 C         140.1848  138.9778  158.9034 C.ar    1  UNL1        0.0670
      7 C         140.1607  140.4494  158.6140 C.ar    1  UNL1        0.0191
      8 C         139.4896  141.3908  159.5696 C.ar    1  UNL1        0.0203
      9 C         138.8425  140.8606  160.8146 C.ar    1  UNL1        0.0795
     10 N         140.8560  138.0363  157.9477 N.ar    1  UNL1       -0.2729
     11 C         142.2507  137.5571  158.2221 C.ar    1  UNL1        0.0860
     12 C         142.9219  136.6157  157.2665 C.ar    1  UNL1        0.0561
     13 C         142.1984  136.1535  156.0364 C.ar    1  UNL1        0.1453
     14 C         140.8037  136.6327  155.7620 C.ar    1  UNL1        0.0980
     15 C         140.1325  137.5742  156.7177 C.ar    1  UNL1        0.2679
     16 O         138.7379  138.0534  156.4433 O.2     1  UNL1       -0.2665
     17 O         142.8696  135.2121  155.0808 O.3     1  UNL1       -0.4704
     18 C         142.4802  133.7638  155.0568 C.3     1  UNL1        0.2320
     19 C         143.1484  132.7921  155.9838 C.ar    1  UNL1        0.0212
     20 C         144.3697  133.2054  156.7503 C.ar    1  UNL1       -0.0007
     21 C         145.0379  132.2336  157.6773 C.ar    1  UNL1       -0.0002
     22 C         144.4848  130.8486  157.8377 C.ar    1  UNL1       -0.0000
     23 C         143.2635  130.4353  157.0711 C.ar    1  UNL1       -0.0002
     24 C         142.5953  131.4070  156.1442 C.ar    1  UNL1       -0.0007
     25 C         137.8531  143.0141  162.0510 C.3     1  UNL1        0.1447
     26 C         138.2622  143.7507  163.2921 C.3     1  UNL1        0.0988
     27 C         140.4607  145.2200  162.9013 C.3     1  UNL1        0.0874
     28 C         141.8698  145.1772  163.4135 C.3     1  UNL1        0.0199
     29 C         141.9862  144.0144  164.3539 C.3     1  UNL1        0.0188
     30 C         140.6489  143.3385  164.4229 C.3     1  UNL1        0.0722
     31 N         139.7061  144.0836  163.5251 N.3     1  UNL1       -0.2700
     32 C         139.9039  146.2230  161.9348 C.3     1  UNL1        0.1581
     33 C         140.5379  145.0031  159.7303 C.3     1  UNL1        0.1742
     34 O         139.5595  145.8055  160.5359 O.3     1  UNL1       -0.3497
@<TRIPOS>BOND
     1    33    34    1
     2    34    32    1
     3    27    32    1
     4    27    28    1
     5    28    29    1
     6    29    30    1
     7    30    31    1
     8    31    26    1
     9    26    25    1
    10    25     1    1
    11     1     2   ar
    12     2     3   ar
    13     3     4   ar
    14     4     5   ar
    15     5     6   ar
    16     6    10    1
    17    10    11   ar
    18    11    12   ar
    19    12    13   ar
    20    13    17    1
    21    17    18    1
    22    18    19    1
    23    19    20   ar
    24    20    21   ar
    25    21    22   ar
    26    22    23   ar
    27    23    24   ar
    28    13    14   ar
    29    14    15   ar
    30    15    16    2
    31     6     7   ar
    32     7     8   ar
    33     8     9   ar
    34    31    27    1
    35     9     1   ar
    36     9     4   ar
    37    15    10   ar
    38    24    19   ar
@<TRIPOS>MOLECULE
*****
 34 38 0 0 0
SMALL
GASTEIGER

@<TRIPOS>ATOM
      1 N         142.2223  137.8613  156.4847 N.ar    1  UNL1       -0.2494
      2 N         140.9422  137.7798  155.7071 N.ar    1  UNL1       -0.1677
      3 C         139.8043  137.9637  156.6669 C.ar    1  UNL1        0.1216
      4 C         140.3811  138.1590  158.0378 C.ar    1  UNL1        0.0396
      5 C         139.7386  138.3862  159.3740 C.ar    1  UNL1        0.0207
      6 C         140.5905  138.5501  160.5976 C.ar    1  UNL1        0.0670
      7 C         142.0850  138.4868  160.4850 C.ar    1  UNL1        0.0191
      8 C         142.7275  138.2596  159.1488 C.ar    1  UNL1        0.0203
      9 C         141.8755  138.0957  157.9252 C.ar    1  UNL1        0.0795
     10 N         139.9481  138.7774  161.9339 N.ar    1  UNL1       -0.2729
     11 C         139.8142  137.6416  162.9046 C.ar    1  UNL1        0.0860
     12 C         139.1718  137.8688  164.2408 C.ar    1  UNL1        0.0561
     13 C         138.6631  139.2318  164.6065 C.ar    1  UNL1        0.1453
     14 C         138.7970  140.3675  163.6358 C.ar    1  UNL1        0.0980
     15 C         139.4395  140.1403  162.2995 C.ar    1  UNL1        0.2679
     16 O         139.5733  141.2760  161.3289 O.2     1  UNL1       -0.2665
     17 O         138.0207  139.4590  165.9427 O.3     1  UNL1       -0.4704
     18 C         138.8436  139.3772  167.1942 C.3     1  UNL1        0.2320
     19 C         140.1216  140.1550  167.3036 C.ar    1  UNL1        0.0212
     20 C         140.1226  141.5091  167.9488 C.ar    1  UNL1       -0.0007
     21 C         141.4006  142.2868  168.0582 C.ar    1  UNL1       -0.0002
     22 C         142.6775  141.7104  167.5224 C.ar    1  UNL1       -0.0000
     23 C         142.6765  140.3563  166.8772 C.ar    1  UNL1       -0.0002
     24 C         141.3986  139.5785  166.7678 C.ar    1  UNL1       -0.0007
     25 C         143.6062  137.7313  155.9210 C.3     1  UNL1        0.1447
     26 C         144.1272  136.3846  155.5147 C.3     1  UNL1        0.0988
     27 C         142.8699  134.1939  156.3895 C.3     1  UNL1        0.0874
     28 C         141.8762  133.2357  155.8025 C.3     1  UNL1        0.0199
     29 C         141.5731  133.6817  154.4028 C.3     1  UNL1        0.0188
     30 C         142.3794  134.9155  154.1246 C.3     1  UNL1        0.0722
     31 N         143.1809  135.2321  155.3524 N.3     1  UNL1       -0.2700
     32 C         143.4505  134.1259  157.7708 C.3     1  UNL1        0.1581
     33 C         144.9676  132.1261  157.1005 C.3     1  UNL1        0.1742
     34 O         144.6296  133.2404  158.0460 O.3     1  UNL1       -0.3497
@<TRIPOS>BOND
     1    33    34    1
     2    34    32    1
     3    27    32    1
     4    27    28    1
     5    28    29    1
     6    29    30    1
     7    30    31    1
     8    31    26    1
     9    26    25    1
    10    25     1    1
    11     1     2   ar
    12     2     3   ar
    13     3     4   ar
    14     4     5   ar
    15     5     6   ar
    16     6    10    1
    17    10    11   ar
    18    11    12   ar
    19    12    13   ar
    20    13    17    1
    21    17    18    1
    22    18    19    1
    23    19    20   ar
    24    20    21   ar
    25    21    22   ar
    26    22    23   ar
    27    23    24   ar
    28    13    14   ar
    29    14    15   ar
    30    15    16    2
    31     6     7   ar
    32     7     8   ar
    33     8     9   ar
    34    31    27    1
    35     9     1   ar
    36     9     4   ar
    37    15    10   ar
    38    24    19   ar
@<TRIPOS>MOLECULE
*****
 34 38 0 0 0
SMALL
GASTEIGER

@<TRIPOS>ATOM
      1 N         142.9167  142.0628  165.1993 N.ar    1  UNL1       -0.2494
      2 N         143.9259  143.0819  165.6386 N.ar    1  UNL1       -0.1677
      3 C         144.0832  144.0844  164.5340 C.ar    1  UNL1        0.1216
      4 C         143.1712  143.6849  163.4120 C.ar    1  UNL1        0.0396
      5 C         142.9041  144.2975  162.0692 C.ar    1  UNL1        0.0207
      6 C         141.9160  143.6606  161.1375 C.ar    1  UNL1        0.0670
      7 C         141.1951  142.4111  161.5487 C.ar    1  UNL1        0.0191
      8 C         141.4622  141.7986  162.8916 C.ar    1  UNL1        0.0203
      9 C         142.4503  142.4355  163.8233 C.ar    1  UNL1        0.0795
     10 N         141.6489  144.2731  159.7945 N.ar    1  UNL1       -0.2729
     11 C         142.5240  143.9291  158.6258 C.ar    1  UNL1        0.0860
     12 C         142.2569  144.5416  157.2829 C.ar    1  UNL1        0.0561
     13 C         141.1147  145.4981  157.1086 C.ar    1  UNL1        0.1453
     14 C         140.2395  145.8422  158.2773 C.ar    1  UNL1        0.0980
     15 C         140.5067  145.2296  159.6203 C.ar    1  UNL1        0.2679
     16 O         139.6316  145.5736  160.7890 O.2     1  UNL1       -0.2665
     17 O         140.8476  146.1106  155.7657 O.3     1  UNL1       -0.4704
     18 C         139.4926  146.6738  155.4543 C.3     1  UNL1        0.2320
     19 C         139.3327  148.1420  155.1923 C.ar    1  UNL1        0.0212
     20 C         138.5812  149.0002  156.1663 C.ar    1  UNL1       -0.0007
     21 C         138.4214  150.4685  155.9043 C.ar    1  UNL1       -0.0002
     22 C         139.0131  151.0785  154.6683 C.ar    1  UNL1       -0.0000
     23 C         139.7646  150.2203  153.6943 C.ar    1  UNL1       -0.0002
     24 C         139.9244  148.7521  153.9562 C.ar    1  UNL1       -0.0007
     25 C         142.4550  140.8788  165.9962 C.3     1  UNL1        0.1447
     26 C         143.0001  139.5139  165.6960 C.3     1  UNL1        0.0988
     27 C         141.4455  138.1278  164.0206 C.3     1  UNL1        0.0874
     28 C         141.5783  137.6408  162.6081 C.3     1  UNL1        0.0199
     29 C         142.9190  138.0734  162.0927 C.3     1  UNL1        0.0188
     30 C         143.6147  138.8277  163.1868 C.3     1  UNL1        0.0722
     31 N         142.7041  138.8613  164.3782 N.3     1  UNL1       -0.2700
     32 C         140.2619  137.9181  164.9179 C.3     1  UNL1        0.1581
     33 C         138.2142  138.8743  166.1994 C.3     1  UNL1        0.1742
     34 O         139.4331  139.0904  165.3523 O.3     1  UNL1       -0.3497
@<TRIPOS>BOND
     1    33    34    1
     2    34    32    1
     3    27    32    1
     4    27    28    1
     5    28    29    1
     6    29    30    1
     7    30    31    1
     8    31    26    1
     9    26    25    1
    10    25     1    1
    11     1     2   ar
    12     2     3   ar
    13     3     4   ar
    14     4     5   ar
    15     5     6   ar
    16     6    10    1
    17    10    11   ar
    18    11    12   ar
    19    12    13   ar
    20    13    17    1
    21    17    18    1
    22    18    19    1
    23    19    20   ar
    24    20    21   ar
    25    21    22   ar
    26    22    23   ar
    27    23    24   ar
    28    13    14   ar
    29    14    15   ar
    30    15    16    2
    31     6     7   ar
    32     7     8   ar
    33     8     9   ar
    34    31    27    1
    35     9     1   ar
    36     9     4   ar
    37    15    10   ar
    38    24    19   ar
@<TRIPOS>MOLECULE
*****
 34 38 0 0 0
SMALL
GASTEIGER

@<TRIPOS>ATOM
      1 N         141.4373  139.8423  164.7732 N.ar    1  UNL1       -0.2494
      2 N         141.4390  138.4258  165.2667 N.ar    1  UNL1       -0.1677
      3 C         141.4576  137.5189  164.0721 C.ar    1  UNL1        0.1216
      4 C         141.4674  138.3749  162.8403 C.ar    1  UNL1        0.0396
      5 C         141.4862  138.0323  161.3801 C.ar    1  UNL1        0.0207
      6 C         141.4924  139.1257  160.3533 C.ar    1  UNL1        0.0670
      7 C         141.4798  140.5616  160.7866 C.ar    1  UNL1        0.0191
      8 C         141.4610  140.9042  162.2468 C.ar    1  UNL1        0.0203
      9 C         141.4549  139.8109  163.2737 C.ar    1  UNL1        0.0795
     10 N         141.5112  138.7831  158.8930 N.ar    1  UNL1       -0.2729
     11 C         140.2631  138.2912  158.2219 C.ar    1  UNL1        0.0860
     12 C         140.2818  137.9486  156.7617 C.ar    1  UNL1        0.0561
     13 C         141.5486  138.0979  155.9725 C.ar    1  UNL1        0.1453
     14 C         142.7967  138.5898  156.6435 C.ar    1  UNL1        0.0980
     15 C         142.7780  138.9324  158.1038 C.ar    1  UNL1        0.2679
     16 O         144.0261  139.4243  158.7749 O.2     1  UNL1       -0.2665
     17 O         141.5674  137.7554  154.5123 O.3     1  UNL1       -0.4704
     18 C         142.4169  136.6220  154.0186 C.3     1  UNL1        0.2320
     19 C         142.5222  135.3589  154.8207 C.ar    1  UNL1        0.0212
     20 C         141.4217  134.3411  154.7649 C.ar    1  UNL1       -0.0007
     21 C         141.5270  133.0779  155.5670 C.ar    1  UNL1       -0.0002
     22 C         142.7327  132.8326  156.4250 C.ar    1  UNL1       -0.0000
     23 C         143.8331  133.8505  156.4809 C.ar    1  UNL1       -0.0002
     24 C         143.7278  135.1136  155.6788 C.ar    1  UNL1       -0.0007
     25 C         141.4208  141.0741  165.6291 C.3     1  UNL1        0.1447
     26 C         142.6512  141.9247  165.7430 C.3     1  UNL1        0.0988
     27 C         144.2097  142.9874  163.8492 C.3     1  UNL1        0.0874
     28 C         144.1003  144.1599  162.9201 C.3     1  UNL1        0.0199
     29 C         142.7862  144.8354  163.1788 C.3     1  UNL1        0.0188
     30 C         142.0834  144.0802  164.2678 C.3     1  UNL1        0.0722
     31 N         142.9632  142.9381  164.6821 N.3     1  UNL1       -0.2700
     32 C         145.3631  142.0319  163.9309 C.3     1  UNL1        0.1581
     33 C         145.0184  139.4829  164.2967 C.3     1  UNL1        0.1742
     34 O         145.2298  140.6459  163.3732 O.3     1  UNL1       -0.3497
@<TRIPOS>BOND
     1    33    34    1
     2    34    32    1
     3    27    32    1
     4    27    28    1
     5    28    29    1
     6    29    30    1
     7    30    31    1
     8    31    26    1
     9    26    25    1
    10    25     1    1
    11     1     2   ar
    12     2     3   ar
    13     3     4   ar
    14     4     5   ar
    15     5     6   ar
    16     6    10    1
    17    10    11   ar
    18    11    12   ar
    19    12    13   ar
    20    13    17    1
    21    17    18    1
    22    18    19    1
    23    19    20   ar
    24    20    21   ar
    25    21    22   ar
    26    22    23   ar
    27    23    24   ar
    28    13    14   ar
    29    14    15   ar
    30    15    16    2
    31     6     7   ar
    32     7     8   ar
    33     8     9   ar
    34    31    27    1
    35     9     1   ar
    36     9     4   ar
    37    15    10   ar
    38    24    19   ar
@<TRIPOS>MOLECULE
*****
 34 38 0 0 0
SMALL
GASTEIGER

@<TRIPOS>ATOM
      1 N         139.3359  140.1355  164.8632 N.ar    1  UNL1       -0.2494
      2 N         138.9838  138.7817  165.4048 N.ar    1  UNL1       -0.1677
      3 C         139.1829  137.7778  164.3083 C.ar    1  UNL1        0.1216
      4 C         139.6579  138.5111  163.0890 C.ar    1  UNL1        0.0396
      5 C         140.0166  138.0402  161.7108 C.ar    1  UNL1        0.0207
      6 C         140.4699  139.0265  160.6755 C.ar    1  UNL1        0.0670
      7 C         140.5645  140.4836  161.0185 C.ar    1  UNL1        0.0191
      8 C         140.2058  140.9545  162.3968 C.ar    1  UNL1        0.0203
      9 C         139.7525  139.9682  163.4320 C.ar    1  UNL1        0.0795
     10 N         140.8286  138.5556  159.2972 N.ar    1  UNL1       -0.2729
     11 C         139.7502  138.3135  158.2831 C.ar    1  UNL1        0.0860
     12 C         140.1088  137.8426  156.9048 C.ar    1  UNL1        0.0561
     13 C         141.5459  137.6139  156.5406 C.ar    1  UNL1        0.1453
     14 C         142.6243  137.8560  157.5548 C.ar    1  UNL1        0.0980
     15 C         142.2656  138.3269  158.9331 C.ar    1  UNL1        0.2679
     16 O         143.3440  138.5690  159.9472 O.2     1  UNL1       -0.2665
     17 O         141.9046  137.1430  155.1624 O.3     1  UNL1       -0.4704
     18 C         143.0354  136.1763  154.9706 C.3     1  UNL1        0.2320
     19 C         142.9397  134.7891  155.5332 C.ar    1  UNL1        0.0212
     20 C         141.9634  133.8098  154.9521 C.ar    1  UNL1       -0.0007
     21 C         141.8678  132.4225  155.5148 C.ar    1  UNL1       -0.0002
     22 C         142.7485  132.0147  156.6585 C.ar    1  UNL1       -0.0000
     23 C         143.7249  132.9941  157.2395 C.ar    1  UNL1       -0.0002
     24 C         143.8205  134.3812  156.6770 C.ar    1  UNL1       -0.0007
     25 C         139.2810  141.4294  165.6200 C.3     1  UNL1        0.1447
     26 C         140.5500  142.1524  165.9627 C.3     1  UNL1        0.0988
     27 C         140.3880  144.4305  164.5739 C.3     1  UNL1        0.0874
     28 C         141.3035  145.1759  163.6485 C.3     1  UNL1        0.0199
     29 C         142.5792  144.3958  163.5308 C.3     1  UNL1        0.0188
     30 C         142.4522  143.1682  164.3834 C.3     1  UNL1        0.0722
     31 N         141.0980  143.1897  165.0280 N.3     1  UNL1       -0.2700
     32 C         139.0053  144.8519  164.9746 C.3     1  UNL1        0.1581
     33 C         137.7566  143.8961  162.9066 C.3     1  UNL1        0.1742
     34 O         137.8106  144.1661  164.3811 O.3     1  UNL1       -0.3497
@<TRIPOS>BOND
     1    33    34    1
     2    34    32    1
     3    27    32    1
     4    27    28    1
     5    28    29    1
     6    29    30    1
     7    30    31    1
     8    31    26    1
     9    26    25    1
    10    25     1    1
    11     1     2   ar
    12     2     3   ar
    13     3     4   ar
    14     4     5   ar
    15     5     6   ar
    16     6    10    1
    17    10    11   ar
    18    11    12   ar
    19    12    13   ar
    20    13    17    1
    21    17    18    1
    22    18    19    1
    23    19    20   ar
    24    20    21   ar
    25    21    22   ar
    26    22    23   ar
    27    23    24   ar
    28    13    14   ar
    29    14    15   ar
    30    15    16    2
    31     6     7   ar
    32     7     8   ar
    33     8     9   ar
    34    31    27    1
    35     9     1   ar
    36     9     4   ar
    37    15    10   ar
    38    24    19   ar
@<TRIPOS>MOLECULE
*****
 34 38 0 0 0
SMALL
GASTEIGER

@<TRIPOS>ATOM
      1 N         138.9146  139.9076  167.3098 N.ar    1  UNL1       -0.2494
      2 N         138.3943  138.7283  166.5426 N.ar    1  UNL1       -0.1677
      3 C         138.5691  139.0130  165.0803 C.ar    1  UNL1        0.1216
      4 C         139.1974  140.3681  164.9437 C.ar    1  UNL1        0.0396
      5 C         139.6028  141.1701  163.7426 C.ar    1  UNL1        0.0207
      6 C         140.2216  142.5249  163.9195 C.ar    1  UNL1        0.0670
      7 C         140.4352  143.0779  165.2974 C.ar    1  UNL1        0.0191
      8 C         140.0299  142.2759  166.4985 C.ar    1  UNL1        0.0203
      9 C         139.4110  140.9211  166.3216 C.ar    1  UNL1        0.0795
     10 N         140.6270  143.3269  162.7184 N.ar    1  UNL1       -0.2729
     11 C         141.9095  143.0145  162.0060 C.ar    1  UNL1        0.0860
     12 C         142.3148  143.8165  160.8049 C.ar    1  UNL1        0.0561
     13 C         141.4377  144.9309  160.3163 C.ar    1  UNL1        0.1453
     14 C         140.1551  145.2433  161.0287 C.ar    1  UNL1        0.0980
     15 C         139.7498  144.4413  162.2298 C.ar    1  UNL1        0.2679
     16 O         138.4673  144.7537  162.9422 O.2     1  UNL1       -0.2665
     17 O         141.8430  145.7328  159.1152 O.3     1  UNL1       -0.4704
     18 C         141.8772  145.0896  157.7606 C.3     1  UNL1        0.2320
     19 C         141.1846  145.7437  156.6020 C.ar    1  UNL1        0.0212
     20 C         141.6749  145.5073  155.2043 C.ar    1  UNL1       -0.0007
     21 C         140.9822  146.1615  154.0457 C.ar    1  UNL1       -0.0002
     22 C         139.7992  147.0521  154.2849 C.ar    1  UNL1       -0.0000
     23 C         139.3088  147.2886  155.6826 C.ar    1  UNL1       -0.0002
     24 C         140.0015  146.6344  156.8412 C.ar    1  UNL1       -0.0007
     25 C         138.9350  140.0487  168.8030 C.3     1  UNL1        0.1447
     26 C         140.2123  139.8328  169.5594 C.3     1  UNL1        0.0988
     27 C         142.5580  140.8025  168.7214 C.3     1  UNL1        0.0874
     28 C         143.3427  142.0539  168.9828 C.3     1  UNL1        0.0199
     29 C         142.5610  142.8988  169.9446 C.3     1  UNL1        0.0188
     30 C         141.2932  142.1696  170.2777 C.3     1  UNL1        0.0722
     31 N         141.2914  140.8741  169.5217 N.3     1  UNL1       -0.2700
     32 C         142.9680  139.6772  167.8183 C.3     1  UNL1        0.1581
     33 C         142.8950  139.9692  165.2377 C.3     1  UNL1        0.1742
     34 O         142.2678  139.4745  166.5073 O.3     1  UNL1       -0.3497
@<TRIPOS>BOND
     1    33    34    1
     2    34    32    1
     3    27    32    1
     4    27    28    1
     5    28    29    1
     6    29    30    1
     7    30    31    1
     8    31    26    1
     9    26    25    1
    10    25     1    1
    11     1     2   ar
    12     2     3   ar
    13     3     4   ar
    14     4     5   ar
    15     5     6   ar
    16     6    10    1
    17    10    11   ar
    18    11    12   ar
    19    12    13   ar
    20    13    17    1
    21    17    18    1
    22    18    19    1
    23    19    20   ar
    24    20    21   ar
    25    21    22   ar
    26    22    23   ar
    27    23    24   ar
    28    13    14   ar
    29    14    15   ar
    30    15    16    2
    31     6     7   ar
    32     7     8   ar
    33     8     9   ar
    34    31    27    1
    35     9     1   ar
    36     9     4   ar
    37    15    10   ar
    38    24    19   ar
@<TRIPOS>MOLECULE
*****
 34 38 0 0 0
SMALL
GASTEIGER

@<TRIPOS>ATOM
      1 N         138.5715  139.5963  168.2010 N.ar    1  UNL1       -0.2494
      2 N         137.5015  138.5458  168.1616 N.ar    1  UNL1       -0.1677
      3 C         137.5088  137.9278  166.7949 C.ar    1  UNL1        0.1216
      4 C         138.5834  138.5963  165.9895 C.ar    1  UNL1        0.0396
      5 C         139.0486  138.3993  164.5772 C.ar    1  UNL1        0.0207
      6 C         140.1706  139.2334  164.0339 C.ar    1  UNL1        0.0670
      7 C         140.8274  140.2646  164.9030 C.ar    1  UNL1        0.0191
      8 C         140.3622  140.4617  166.3153 C.ar    1  UNL1        0.0203
      9 C         139.2402  139.6275  166.8586 C.ar    1  UNL1        0.0795
     10 N         140.6358  139.0364  162.6215 N.ar    1  UNL1       -0.2729
     11 C         141.8307  138.1748  162.3388 C.ar    1  UNL1        0.0860
     12 C         142.2959  137.9777  160.9265 C.ar    1  UNL1        0.0561
     13 C         141.5664  138.6424  159.7968 C.ar    1  UNL1        0.1453
     14 C         140.3716  139.5040  160.0796 C.ar    1  UNL1        0.0980
     15 C         139.9063  139.7010  161.4920 C.ar    1  UNL1        0.2679
     16 O         138.7115  140.5627  161.7747 O.2     1  UNL1       -0.2665
     17 O         142.0317  138.4453  158.3845 O.3     1  UNL1       -0.4704
     18 C         141.1387  137.7667  157.3885 C.3     1  UNL1        0.2320
     19 C         141.7077  136.7552  156.4381 C.ar    1  UNL1        0.0212
     20 C         140.8077  136.0467  155.4696 C.ar    1  UNL1       -0.0007
     21 C         141.3768  135.0352  154.5192 C.ar    1  UNL1       -0.0002
     22 C         142.8457  134.7323  154.5374 C.ar    1  UNL1       -0.0000
     23 C         143.7457  135.4408  155.5059 C.ar    1  UNL1       -0.0002
     24 C         143.1767  136.4522  156.4562 C.ar    1  UNL1       -0.0007
     25 C         138.9130  140.4634  169.3764 C.3     1  UNL1        0.1447
     26 C         140.1382  140.1730  170.1917 C.3     1  UNL1        0.0988
     27 C         142.5525  140.7886  169.2235 C.3     1  UNL1        0.0874
     28 C         143.5100  141.9285  169.4076 C.3     1  UNL1        0.0199
     29 C         142.8944  142.9002  170.3703 C.3     1  UNL1        0.0188
     30 C         141.5564  142.3608  170.7812 C.3     1  UNL1        0.0722
     31 N         141.3451  141.0558  170.0724 N.3     1  UNL1       -0.2700
     32 C         142.7651  139.5917  168.3448 C.3     1  UNL1        0.1581
     33 C         143.0082  137.9624  170.3538 C.3     1  UNL1        0.1742
     34 O         143.3058  138.3198  168.9277 O.3     1  UNL1       -0.3497
@<TRIPOS>BOND
     1    33    34    1
     2    34    32    1
     3    27    32    1
     4    27    28    1
     5    28    29    1
     6    29    30    1
     7    30    31    1
     8    31    26    1
     9    26    25    1
    10    25     1    1
    11     1     2   ar
    12     2     3   ar
    13     3     4   ar
    14     4     5   ar
    15     5     6   ar
    16     6    10    1
    17    10    11   ar
    18    11    12   ar
    19    12    13   ar
    20    13    17    1
    21    17    18    1
    22    18    19    1
    23    19    20   ar
    24    20    21   ar
    25    21    22   ar
    26    22    23   ar
    27    23    24   ar
    28    13    14   ar
    29    14    15   ar
    30    15    16    2
    31     6     7   ar
    32     7     8   ar
    33     8     9   ar
    34    31    27    1
    35     9     1   ar
    36     9     4   ar
    37    15    10   ar
    38    24    19   ar
@<TRIPOS>MOLECULE
*****
 34 38 0 0 0
SMALL
GASTEIGER

@<TRIPOS>ATOM
      1 N         138.9042  142.8794  162.0902 N.ar    1  UNL1       -0.2494
      2 N         139.2266  144.0691  161.2355 N.ar    1  UNL1       -0.1677
      3 C         139.8640  143.5728  159.9717 C.ar    1  UNL1        0.1216
      4 C         139.9356  142.0763  160.0453 C.ar    1  UNL1        0.0396
      5 C         140.4643  141.0485  159.0892 C.ar    1  UNL1        0.0207
      6 C         140.3997  139.5922  159.4425 C.ar    1  UNL1        0.0670
      7 C         139.8065  139.1636  160.7519 C.ar    1  UNL1        0.0191
      8 C         139.2778  140.1914  161.7079 C.ar    1  UNL1        0.0203
      9 C         139.3423  141.6477  161.3547 C.ar    1  UNL1        0.0795
     10 N         140.9284  138.5643  158.4864 N.ar    1  UNL1       -0.2729
     11 C         142.2878  137.9680  158.7025 C.ar    1  UNL1        0.0860
     12 C         142.8165  136.9402  157.7465 C.ar    1  UNL1        0.0561
     13 C         141.9858  136.5086  156.5743 C.ar    1  UNL1        0.1453
     14 C         140.6265  137.1049  156.3583 C.ar    1  UNL1        0.0980
     15 C         140.0978  138.1328  157.3143 C.ar    1  UNL1        0.2679
     16 O         138.7385  138.7290  157.0983 O.2     1  UNL1       -0.2665
     17 O         142.5146  135.4808  155.6183 O.3     1  UNL1       -0.4704
     18 C         142.0622  134.0546  155.7247 C.3     1  UNL1        0.2320
     19 C         142.9262  133.0435  156.4183 C.ar    1  UNL1        0.0212
     20 C         142.5915  131.5840  156.3297 C.ar    1  UNL1       -0.0007
     21 C         143.4555  130.5729  157.0233 C.ar    1  UNL1       -0.0002
     22 C         144.6542  131.0213  157.8056 C.ar    1  UNL1       -0.0000
     23 C         144.9889  132.4807  157.8943 C.ar    1  UNL1       -0.0002
     24 C         144.1250  133.4918  157.2007 C.ar    1  UNL1       -0.0007
     25 C         138.2572  142.9150  163.4431 C.3     1  UNL1        0.1447
     26 C         139.0826  142.6906  164.6754 C.3     1  UNL1        0.0988
     27 C         139.7166  141.0386  166.6788 C.3     1  UNL1        0.0874
     28 C         139.2966  139.6581  167.0884 C.3     1  UNL1        0.0199
     29 C         138.2889  139.1654  166.0925 C.3     1  UNL1        0.0188
     30 C         138.0861  140.2415  165.0673 C.3     1  UNL1        0.0722
     31 N         138.9684  141.3992  165.4297 N.3     1  UNL1       -0.2700
     32 C         140.7102  141.9062  167.3929 C.3     1  UNL1        0.1581
     33 C         140.5135  143.4783  169.4520 C.3     1  UNL1        0.1742
     34 O         140.2723  143.2077  167.9964 O.3     1  UNL1       -0.3497
@<TRIPOS>BOND
     1    33    34    1
     2    34    32    1
     3    27    32    1
     4    27    28    1
     5    28    29    1
     6    29    30    1
     7    30    31    1
     8    31    26    1
     9    26    25    1
    10    25     1    1
    11     1     2   ar
    12     2     3   ar
    13     3     4   ar
    14     4     5   ar
    15     5     6   ar
    16     6    10    1
    17    10    11   ar
    18    11    12   ar
    19    12    13   ar
    20    13    17    1
    21    17    18    1
    22    18    19    1
    23    19    20   ar
    24    20    21   ar
    25    21    22   ar
    26    22    23   ar
    27    23    24   ar
    28    13    14   ar
    29    14    15   ar
    30    15    16    2
    31     6     7   ar
    32     7     8   ar
    33     8     9   ar
    34    31    27    1
    35     9     1   ar
    36     9     4   ar
    37    15    10   ar
    38    24    19   ar
