@<TRIPOS>MOLECULE
*****
 56 58 0 0 0
SMALL
GASTEIGER

@<TRIPOS>ATOM
      1 C         140.6973  138.4275  156.5476 C.3     1  UNL1        0.1953
      2 O         141.4394  139.3283  157.4899 O.3     1  UNL1       -0.4497
      3 C         141.7915  140.6542  158.0964 C.2     1  UNL1        0.3188
      4 O         142.8245  140.2890  159.1209 O.2     1  UNL1       -0.2500
      5 C         141.6839  142.1428  158.2470 C.3     1  UNL1        0.1263
      6 C         142.6172  142.0845  159.2207 C.3     1  UNL1        0.0142
      7 C         141.1379  143.4991  157.9118 C.3     1  UNL1        0.1306
      8 C         140.2616  144.4545  157.1572 C.3     1  UNL1        0.0575
      9 C         140.6137  145.7805  157.7638 C.3     1  UNL1        0.0051
     10 C         139.2286  144.8198  156.1328 C.3     1  UNL1        0.1444
     11 C         138.2435  144.5226  155.0414 C.3     1  UNL1        0.1137
     12 C         138.2914  145.9893  155.3520 C.3     1  UNL1        0.0318
     13 O         137.2934  145.2971  154.1769 O.3     1  UNL1       -0.3844
     14 C         137.5014  143.6219  154.0991 C.3     1  UNL1        0.0366
     15 C         137.1493  142.2959  153.4926 C.3     1  UNL1        0.0601
     16 C         136.1163  142.6612  152.4682 C.3     1  UNL1        0.0078
     17 C         137.2569  140.8073  153.3420 C.2     1  UNL1        0.1523
     18 O         136.2718  140.5102  152.2506 O.2     1  UNL1       -0.2960
     19 C         137.8029  139.4510  153.6772 C.3     1  UNL1        0.0869
     20 C         137.0608  138.5502  152.7349 C.3     1  UNL1        0.0104
     21 C         138.6793  138.4956  154.4318 C.3     1  UNL1        0.1451
     22 O         138.3271  137.1697  153.8253 O.3     1  UNL1       -0.3815
     23 C         139.7122  138.1303  155.4562 C.3     1  UNL1        0.1497
     24 C         139.2181  136.9201  154.7205 C.3     1  UNL1        0.0356
     25 O         140.3842  136.8808  155.9431 O.3     1  UNL1       -0.3808
     26 H         137.3472  146.2394  154.4008 H       1  UNL1        0.2103
     27 H         137.6542  137.2968  153.1383 H       1  UNL1        0.2105
     28 H         140.0446  136.1178  155.4497 H       1  UNL1        0.2105
     29 C         142.7172  136.8107  156.7841 C.3     1  UNL1        0.0039
     30 C         141.2434  137.0712  156.8828 C.3     1  UNL1        0.0462
     31 O         141.8800  144.3999  158.8541 O.3     1  UNL1       -0.3323
     32 C         141.4969  144.4481  160.3035 C.3     1  UNL1        0.2375
     33 C         140.0823  144.1660  160.7151 C.3     1  UNL1        0.0910
     34 C         139.6991  144.2142  162.1646 C.3     1  UNL1        0.1246
     35 C         138.8561  144.1385  163.4029 C.3     1  UNL1        0.0324
     36 C         140.7306  144.5445  163.2024 C.3     1  UNL1        0.1623
     37 O         140.3474  144.5927  164.6518 O.3     1  UNL1       -0.3796
     38 C         142.1452  144.8266  162.7908 C.3     1  UNL1        0.1468
     39 C         143.1765  145.1569  163.8286 C.3     1  UNL1        0.0348
     40 O         142.5283  144.7784  161.3414 O.3     1  UNL1       -0.3304
     41 H         139.4038  144.3875  164.7438 H       1  UNL1        0.2105
     42 O         138.3750  143.8576  161.5568 O.3     1  UNL1       -0.3532
     43 C         138.1649  142.4968  160.9620 C.3     1  UNL1        0.1740
     44 O         139.1210  146.3083  156.2834 O.3     1  UNL1       -0.3287
     45 C         139.5988  147.2098  155.1838 C.3     1  UNL1        0.2643
     46 O         140.5200  146.6790  154.1257 O.3     1  UNL1       -0.3311
     47 C         140.9977  147.5806  153.0262 C.3     1  UNL1        0.1194
     48 C         141.9189  147.0497  151.9680 C.3     1  UNL1        0.0322
     49 C         140.5543  149.0129  152.9848 C.3     1  UNL1        0.0482
     50 C         139.6332  149.5438  154.0430 C.3     1  UNL1        0.0921
     51 C         139.1554  148.6423  155.1425 C.3     1  UNL1        0.1815
     52 O         138.2342  149.1730  156.2007 O.3     1  UNL1       -0.3783
     53 H         138.0236  148.4659  156.8303 H       1  UNL1        0.2106
     54 N         139.1898  150.9762  154.0015 N.3     1  UNL1       -0.2692
     55 C         138.9810  151.6588  152.6823 C.3     1  UNL1        0.0897
     56 C         138.9553  151.7259  155.2794 C.3     1  UNL1        0.0897
@<TRIPOS>BOND
     1    29    30    1
     2     1    30    1
     3     1     2    1
     4     2     3    1
     5     3     4    2
     6     3     5    1
     7     5     6    1
     8     5     7    1
     9     7    31    1
    10    32    31    1
    11    32    33    1
    12    33    34    1
    13    34    35    1
    14    34    42    1
    15    42    43    1
    16    34    36    1
    17    36    37    1
    18    36    38    1
    19    38    39    1
    20    38    40    1
    21     7     8    1
    22     8     9    1
    23     8    10    1
    24    10    44    1
    25    45    44    1
    26    45    46    1
    27    46    47    1
    28    47    48    1
    29    47    49    1
    30    49    50    1
    31    50    54    1
    32    54    55    1
    33    54    56    1
    34    50    51    1
    35    51    52    1
    36    10    11    1
    37    11    12    1
    38    11    13    1
    39    11    14    1
    40    14    15    1
    41    15    16    1
    42    15    17    1
    43    17    18    2
    44    17    19    1
    45    19    20    1
    46    19    21    1
    47    21    22    1
    48    21    23    1
    49    23    24    1
    50    23    25    1
    51    23     1    1
    52    40    32    1
    53    51    45    1
    54    37    41    1
    55    52    53    1
    56    13    26    1
    57    22    27    1
    58    25    28    1
@<TRIPOS>MOLECULE
*****
 56 58 0 0 0
SMALL
GASTEIGER

@<TRIPOS>ATOM
      1 C         141.9837  139.6735  164.5284 C.3     1  UNL1        0.1953
      2 O         142.6293  138.9914  163.3588 O.3     1  UNL1       -0.4497
      3 C         143.0503  138.8791  161.9235 C.2     1  UNL1        0.3188
      4 O         143.7424  137.5490  161.8817 O.2     1  UNL1       -0.2500
      5 C         143.1634  139.3588  160.5067 C.3     1  UNL1        0.1263
      6 C         143.8232  138.2210  160.2028 C.3     1  UNL1        0.0142
      7 C         142.9460  140.3354  159.3892 C.3     1  UNL1        0.1306
      8 C         142.4413  141.6157  158.7922 C.3     1  UNL1        0.0575
      9 C         142.8623  141.5033  157.3568 C.3     1  UNL1        0.0051
     10 C         141.7492  142.9458  158.8339 C.3     1  UNL1        0.1444
     11 C         141.0069  144.0625  159.5062 C.3     1  UNL1        0.1137
     12 C         141.2283  144.3497  158.0507 C.3     1  UNL1        0.0318
     13 O         140.4263  145.3891  159.1150 O.3     1  UNL1       -0.3844
     14 C         140.3613  144.7445  160.6758 C.3     1  UNL1        0.0366
     15 C         139.9403  144.8568  162.1111 C.3     1  UNL1        0.0601
     16 C         139.2482  146.1870  162.1529 C.3     1  UNL1        0.0078
     17 C         139.8273  144.3772  163.5279 C.2     1  UNL1        0.1523
     18 O         139.0849  145.4939  164.2002 O.2     1  UNL1       -0.2960
     19 C         140.0446  143.4005  164.6454 C.3     1  UNL1        0.0869
     20 C         139.3990  144.0826  165.8151 C.3     1  UNL1        0.0104
     21 C         140.5494  142.1203  165.2425 C.3     1  UNL1        0.1451
     22 O         140.1283  142.2326  166.6778 O.3     1  UNL1       -0.3815
     23 C         141.2414  140.7902  165.2007 C.3     1  UNL1        0.1497
     24 C         140.7336  141.1007  166.5775 C.3     1  UNL1        0.0356
     25 O         141.5624  139.6870  166.1649 O.3     1  UNL1       -0.3808
     26 H         140.5851  145.5458  158.1710 H       1  UNL1        0.2103
     27 H         139.6634  143.0731  166.8135 H       1  UNL1        0.2105
     28 H         141.2223  139.9165  167.0438 H       1  UNL1        0.2105
     29 C         143.5950  138.3404  166.0700 C.3     1  UNL1        0.0039
     30 C         142.2011  138.6968  165.6460 C.3     1  UNL1        0.0462
     31 O         143.5916  139.6534  158.2195 O.3     1  UNL1       -0.3323
     32 C         142.8466  138.5922  157.4654 C.3     1  UNL1        0.2375
     33 C         141.3466  138.5901  157.4585 C.3     1  UNL1        0.0910
     34 C         140.6015  137.5288  156.7043 C.3     1  UNL1        0.1246
     35 C         139.4562  136.7403  156.1419 C.3     1  UNL1        0.0324
     36 C         141.3566  136.4696  155.9571 C.3     1  UNL1        0.1623
     37 O         140.6115  135.4085  155.2031 O.3     1  UNL1       -0.3796
     38 C         142.8565  136.4718  155.9641 C.3     1  UNL1        0.1468
     39 C         143.6115  135.4126  155.2169 C.3     1  UNL1        0.0348
     40 O         143.6015  137.5330  156.7182 O.3     1  UNL1       -0.3304
     41 H         139.6572  135.5518  155.3011 H       1  UNL1        0.2105
     42 O         139.4488  138.3141  157.2562 O.3     1  UNL1       -0.3532
     43 C         139.4611  138.7579  158.6889 C.3     1  UNL1        0.1740
     44 O         141.8622  143.4255  157.4172 O.3     1  UNL1       -0.3287
     45 C         140.6423  143.9059  156.6885 C.3     1  UNL1        0.2643
     46 O         140.4658  145.3681  156.4043 O.3     1  UNL1       -0.3311
     47 C         139.2459  145.8485  155.6756 C.3     1  UNL1        0.1194
     48 C         139.0694  147.3108  155.3913 C.3     1  UNL1        0.0322
     49 C         138.2026  144.8668  155.2311 C.3     1  UNL1        0.0482
     50 C         138.3791  143.4046  155.5153 C.3     1  UNL1        0.0921
     51 C         139.5989  142.9241  156.2440 C.3     1  UNL1        0.1815
     52 O         139.7755  141.4619  156.5283 O.3     1  UNL1       -0.3783
     53 H         140.6102  141.3233  157.0025 H       1  UNL1        0.2106
     54 N         137.3356  142.4229  155.0708 N.3     1  UNL1       -0.2692
     55 C         136.3862  141.8332  156.0711 C.3     1  UNL1        0.0897
     56 C         137.2417  142.0310  153.6260 C.3     1  UNL1        0.0897
@<TRIPOS>BOND
     1    29    30    1
     2     1    30    1
     3     1     2    1
     4     2     3    1
     5     3     4    2
     6     3     5    1
     7     5     6    1
     8     5     7    1
     9     7    31    1
    10    32    31    1
    11    32    33    1
    12    33    34    1
    13    34    35    1
    14    34    42    1
    15    42    43    1
    16    34    36    1
    17    36    37    1
    18    36    38    1
    19    38    39    1
    20    38    40    1
    21     7     8    1
    22     8     9    1
    23     8    10    1
    24    10    44    1
    25    45    44    1
    26    45    46    1
    27    46    47    1
    28    47    48    1
    29    47    49    1
    30    49    50    1
    31    50    54    1
    32    54    55    1
    33    54    56    1
    34    50    51    1
    35    51    52    1
    36    10    11    1
    37    11    12    1
    38    11    13    1
    39    11    14    1
    40    14    15    1
    41    15    16    1
    42    15    17    1
    43    17    18    2
    44    17    19    1
    45    19    20    1
    46    19    21    1
    47    21    22    1
    48    21    23    1
    49    23    24    1
    50    23    25    1
    51    23     1    1
    52    40    32    1
    53    51    45    1
    54    37    41    1
    55    52    53    1
    56    13    26    1
    57    22    27    1
    58    25    28    1
@<TRIPOS>MOLECULE
*****
 56 58 0 0 0
SMALL
GASTEIGER

@<TRIPOS>ATOM
      1 C         140.8195  144.3949  162.1292 C.3     1  UNL1        0.1953
      2 O         141.3188  144.6031  160.7301 O.3     1  UNL1       -0.4497
      3 C         141.8739  144.1510  159.4120 C.2     1  UNL1        0.3188
      4 O         141.9953  145.4335  158.6434 O.2     1  UNL1       -0.2500
      5 C         142.3750  143.1282  158.4358 C.3     1  UNL1        0.1263
      6 C         142.5810  144.1202  157.5437 C.3     1  UNL1        0.0142
      7 C         142.7229  141.7373  157.9951 C.3     1  UNL1        0.1306
      8 C         142.8485  140.2536  158.1770 C.3     1  UNL1        0.0575
      9 C         143.4037  139.8016  156.8589 C.3     1  UNL1        0.0051
     10 C         142.7271  138.9712  158.9455 C.3     1  UNL1        0.1444
     11 C         142.3827  138.1439  160.1485 C.3     1  UNL1        0.1137
     12 C         142.9138  137.2939  159.0326 C.3     1  UNL1        0.0318
     13 O         142.4263  136.6956  160.5361 O.3     1  UNL1       -0.3844
     14 C         141.8834  137.9357  161.5475 C.3     1  UNL1        0.0366
     15 C         141.3283  138.3878  162.8656 C.3     1  UNL1        0.0601
     16 C         141.2069  137.1054  163.6342 C.3     1  UNL1        0.0078
     17 C         140.8272  139.4106  163.8418 C.2     1  UNL1        0.1523
     18 O         140.4827  138.5833  165.0447 O.2     1  UNL1       -0.2960
     19 C         140.4793  140.8015  164.2826 C.3     1  UNL1        0.0869
     20 C         139.9801  140.5933  165.6816 C.3     1  UNL1        0.0104
     21 C         140.3537  142.2852  164.1006 C.3     1  UNL1        0.1451
     22 O         139.7986  142.7372  165.4188 O.3     1  UNL1       -0.3815
     23 C         140.4751  143.5676  163.3321 C.3     1  UNL1        0.1497
     24 C         139.9265  143.8032  164.7081 C.3     1  UNL1        0.0356
     25 O         140.1957  145.0222  163.5690 O.3     1  UNL1       -0.3808
     26 H         142.7731  136.1731  159.7960 H       1  UNL1        0.2103
     27 H         139.6802  141.9698  166.0000 H       1  UNL1        0.2105
     28 H         139.8430  145.1420  164.4646 H       1  UNL1        0.2105
     29 C         139.5928  146.6467  161.7119 C.3     1  UNL1        0.0039
     30 C         140.4717  145.7858  162.5699 C.3     1  UNL1        0.0462
     31 O         143.2221  141.9455  156.5960 O.3     1  UNL1       -0.3323
     32 C         144.6943  142.0660  156.3352 C.3     1  UNL1        0.2375
     33 C         145.2597  141.6350  155.0144 C.3     1  UNL1        0.0910
     34 C         146.7320  141.7555  154.7536 C.3     1  UNL1        0.1246
     35 C         148.0480  141.6748  154.0384 C.3     1  UNL1        0.0324
     36 C         147.6388  142.3071  155.8136 C.3     1  UNL1        0.1623
     37 O         149.1110  142.4276  155.5528 O.3     1  UNL1       -0.3796
     38 C         147.0733  142.7381  157.1344 C.3     1  UNL1        0.1468
     39 C         147.9801  143.2896  158.1944 C.3     1  UNL1        0.0348
     40 O         145.6011  142.6175  157.3952 O.3     1  UNL1       -0.3304
     41 H         149.3081  142.1077  154.6585 H       1  UNL1        0.2105
     42 O         146.2823  141.1760  153.4452 O.3     1  UNL1       -0.3532
     43 C         145.3910  139.9697  153.4261 C.3     1  UNL1        0.1740
     44 O         143.2282  137.9484  157.9695 O.3     1  UNL1       -0.3287
     45 C         142.2648  137.2431  157.0613 C.3     1  UNL1        0.2643
     46 O         140.9492  137.8797  156.7238 O.3     1  UNL1       -0.3311
     47 C         139.9860  137.1744  155.8157 C.3     1  UNL1        0.1194
     48 C         138.6703  137.8109  155.4781 C.3     1  UNL1        0.0322
     49 C         140.3383  135.8326  155.2452 C.3     1  UNL1        0.0482
     50 C         141.6539  135.1961  155.5828 C.3     1  UNL1        0.0921
     51 C         142.6172  135.9013  156.4908 C.3     1  UNL1        0.1815
     52 O         143.9328  135.2648  156.8285 O.3     1  UNL1       -0.3783
     53 H         144.4315  135.8482  157.4217 H       1  UNL1        0.2106
     54 N         142.0062  133.8543  155.0122 N.3     1  UNL1       -0.2692
     55 C         142.2030  133.6962  153.5337 C.3     1  UNL1        0.0897
     56 C         142.1615  132.6705  155.9203 C.3     1  UNL1        0.0897
@<TRIPOS>BOND
     1    29    30    1
     2     1    30    1
     3     1     2    1
     4     2     3    1
     5     3     4    2
     6     3     5    1
     7     5     6    1
     8     5     7    1
     9     7    31    1
    10    32    31    1
    11    32    33    1
    12    33    34    1
    13    34    35    1
    14    34    42    1
    15    42    43    1
    16    34    36    1
    17    36    37    1
    18    36    38    1
    19    38    39    1
    20    38    40    1
    21     7     8    1
    22     8     9    1
    23     8    10    1
    24    10    44    1
    25    45    44    1
    26    45    46    1
    27    46    47    1
    28    47    48    1
    29    47    49    1
    30    49    50    1
    31    50    54    1
    32    54    55    1
    33    54    56    1
    34    50    51    1
    35    51    52    1
    36    10    11    1
    37    11    12    1
    38    11    13    1
    39    11    14    1
    40    14    15    1
    41    15    16    1
    42    15    17    1
    43    17    18    2
    44    17    19    1
    45    19    20    1
    46    19    21    1
    47    21    22    1
    48    21    23    1
    49    23    24    1
    50    23    25    1
    51    23     1    1
    52    40    32    1
    53    51    45    1
    54    37    41    1
    55    52    53    1
    56    13    26    1
    57    22    27    1
    58    25    28    1
@<TRIPOS>MOLECULE
*****
 56 58 0 0 0
SMALL
GASTEIGER

@<TRIPOS>ATOM
      1 C         138.9909  139.2103  165.7808 C.3     1  UNL1        0.1953
      2 O         138.7200  138.6545  164.4141 O.3     1  UNL1       -0.4497
      3 C         138.9983  138.4662  162.9523 C.2     1  UNL1        0.3188
      4 O         137.8883  137.5565  162.5157 O.2     1  UNL1       -0.2500
      5 C         139.7705  138.6827  161.6846 C.3     1  UNL1        0.1263
      6 C         138.8907  137.8838  161.0442 C.3     1  UNL1        0.0142
      7 C         140.8837  139.2612  160.8624 C.3     1  UNL1        0.1306
      8 C         142.1175  140.0871  160.6484 C.3     1  UNL1        0.0575
      9 C         142.3957  139.8988  159.1864 C.3     1  UNL1        0.0051
     10 C         143.2274  140.9967  161.0849 C.3     1  UNL1        0.1444
     11 C         143.9937  141.8100  162.0856 C.3     1  UNL1        0.1137
     12 C         144.6138  141.8924  160.7223 C.3     1  UNL1        0.0318
     13 O         145.2131  142.6835  162.0902 O.3     1  UNL1       -0.3844
     14 C         144.2645  142.3658  163.4523 C.3     1  UNL1        0.0366
     15 C         143.9863  142.5541  164.9141 C.3     1  UNL1        0.0601
     16 C         145.0962  143.4637  165.3508 C.3     1  UNL1        0.0078
     17 C         143.2141  142.3375  166.1818 C.2     1  UNL1        0.1523
     18 O         143.9804  143.1508  167.1825 O.2     1  UNL1       -0.2960
     19 C         142.1009  141.7591  167.0041 C.3     1  UNL1        0.0869
     20 C         142.3717  142.3149  168.3707 C.3     1  UNL1        0.0104
     21 C         140.8671  140.9332  167.2181 C.3     1  UNL1        0.1451
     22 O         140.5889  141.1215  168.6800 O.3     1  UNL1       -0.3815
     23 C         139.7572  140.0236  166.7815 C.3     1  UNL1        0.1497
     24 C         139.6612  140.3424  168.2440 C.3     1  UNL1        0.0356
     25 O         138.5771  139.3469  167.4136 O.3     1  UNL1       -0.3808
     26 H         145.5903  142.7168  161.1972 H       1  UNL1        0.2103
     27 H         141.2618  141.7047  169.0646 H       1  UNL1        0.2105
     28 H         138.5423  139.5717  168.3565 H       1  UNL1        0.2105
     29 C         137.6466  137.1498  166.6158 C.3     1  UNL1        0.0039
     30 C         137.8777  138.6318  166.6030 C.3     1  UNL1        0.0462
     31 O         140.6128  138.7054  159.4957 O.3     1  UNL1       -0.3323
     32 C         139.7456  139.4645  158.5357 C.3     1  UNL1        0.2375
     33 C         139.2692  140.8434  158.8847 C.3     1  UNL1        0.0910
     34 C         138.4019  141.6026  157.9248 C.3     1  UNL1        0.1246
     35 C         137.5700  142.7106  157.3501 C.3     1  UNL1        0.0324
     36 C         138.0110  140.9829  156.6158 C.3     1  UNL1        0.1623
     37 O         137.1437  141.7421  155.6560 O.3     1  UNL1       -0.3796
     38 C         138.4875  139.6040  156.2669 C.3     1  UNL1        0.1468
     39 C         138.0966  138.9843  154.9580 C.3     1  UNL1        0.0348
     40 O         139.3547  138.8449  157.2268 O.3     1  UNL1       -0.3304
     41 H         136.9267  142.6092  156.0327 H       1  UNL1        0.2105
     42 O         138.5038  142.6071  159.0341 O.3     1  UNL1       -0.3532
     43 C         138.4214  142.1577  160.4627 C.3     1  UNL1        0.1740
     44 O         143.9996  141.2133  159.8174 O.3     1  UNL1       -0.3287
     45 C         143.5227  142.2183  158.8110 C.3     1  UNL1        0.2643
     46 O         142.6483  143.3572  159.2448 O.3     1  UNL1       -0.3311
     47 C         142.1715  144.3621  158.2385 C.3     1  UNL1        0.1194
     48 C         141.2971  145.5012  158.6723 C.3     1  UNL1        0.0322
     49 C         142.5690  144.2281  156.7984 C.3     1  UNL1        0.0482
     50 C         143.4434  143.0891  156.3645 C.3     1  UNL1        0.0921
     51 C         143.9202  142.0842  157.3708 C.3     1  UNL1        0.1815
     52 O         144.7946  140.9452  156.9371 O.3     1  UNL1       -0.3783
     53 H         145.0110  140.3932  157.7047 H       1  UNL1        0.2106
     54 N         143.8409  142.9552  154.9244 N.3     1  UNL1       -0.2692
     55 C         142.8777  142.3755  153.9313 C.3     1  UNL1        0.0897
     56 C         145.2016  143.4009  154.4773 C.3     1  UNL1        0.0897
@<TRIPOS>BOND
     1    29    30    1
     2     1    30    1
     3     1     2    1
     4     2     3    1
     5     3     4    2
     6     3     5    1
     7     5     6    1
     8     5     7    1
     9     7    31    1
    10    32    31    1
    11    32    33    1
    12    33    34    1
    13    34    35    1
    14    34    42    1
    15    42    43    1
    16    34    36    1
    17    36    37    1
    18    36    38    1
    19    38    39    1
    20    38    40    1
    21     7     8    1
    22     8     9    1
    23     8    10    1
    24    10    44    1
    25    45    44    1
    26    45    46    1
    27    46    47    1
    28    47    48    1
    29    47    49    1
    30    49    50    1
    31    50    54    1
    32    54    55    1
    33    54    56    1
    34    50    51    1
    35    51    52    1
    36    10    11    1
    37    11    12    1
    38    11    13    1
    39    11    14    1
    40    14    15    1
    41    15    16    1
    42    15    17    1
    43    17    18    2
    44    17    19    1
    45    19    20    1
    46    19    21    1
    47    21    22    1
    48    21    23    1
    49    23    24    1
    50    23    25    1
    51    23     1    1
    52    40    32    1
    53    51    45    1
    54    37    41    1
    55    52    53    1
    56    13    26    1
    57    22    27    1
    58    25    28    1
@<TRIPOS>MOLECULE
*****
 56 58 0 0 0
SMALL
GASTEIGER

@<TRIPOS>ATOM
      1 C         138.6037  139.6919  154.1873 C.3     1  UNL1        0.1953
      2 O         138.1275  141.1143  154.1829 O.3     1  UNL1       -0.4497
      3 C         138.0903  142.5285  154.6813 C.2     1  UNL1        0.3188
      4 O         137.0873  143.1762  153.7732 O.2     1  UNL1       -0.2500
      5 C         138.4995  143.6547  155.5838 C.3     1  UNL1        0.1263
      6 C         137.6505  144.4634  154.9148 C.3     1  UNL1        0.0142
      7 C         139.2741  144.2695  156.7117 C.3     1  UNL1        0.1306
      8 C         140.2606  144.2512  157.8415 C.3     1  UNL1        0.0575
      9 C         140.2234  145.6656  158.3399 C.3     1  UNL1        0.0051
     10 C         141.2636  143.6036  158.7495 C.3     1  UNL1        0.1444
     11 C         142.0845  142.4549  159.2559 C.3     1  UNL1        0.1137
     12 C         142.3497  143.7057  160.0402 C.3     1  UNL1        0.0318
     13 O         143.0992  142.2200  160.3354 O.3     1  UNL1       -0.3844
     14 C         142.5607  141.0324  159.2603 C.3     1  UNL1        0.0366
     15 C         142.5979  139.6182  158.7620 C.3     1  UNL1        0.0601
     16 C         143.6009  138.9705  159.6700 C.3     1  UNL1        0.0078
     17 C         142.1887  138.4921  157.8594 C.2     1  UNL1        0.1523
     18 O         143.0096  137.3433  158.3658 O.2     1  UNL1       -0.2960
     19 C         141.4141  137.8772  156.7316 C.3     1  UNL1        0.0869
     20 C         141.8903  136.4548  156.7360 C.3     1  UNL1        0.0104
     21 C         140.4276  137.8955  155.6017 C.3     1  UNL1        0.1451
     22 O         140.4648  136.4812  155.1033 O.3     1  UNL1       -0.3815
     23 C         139.4246  138.5431  154.6937 C.3     1  UNL1        0.1497
     24 C         139.6134  137.0938  154.3566 C.3     1  UNL1        0.0356
     25 O         138.5596  138.1318  153.5394 O.3     1  UNL1       -0.3808
     26 H         143.2488  143.0448  160.8235 H       1  UNL1        0.2103
     27 H         141.0949  135.9682  155.6331 H       1  UNL1        0.2105
     28 H         138.7038  137.1922  153.3460 H       1  UNL1        0.2105
     29 C         136.3298  139.1195  153.0685 C.3     1  UNL1        0.0039
     30 C         137.8292  139.0771  153.0594 C.3     1  UNL1        0.0462
     31 O         138.7979  145.6919  156.7072 O.3     1  UNL1       -0.3323
     32 C         139.3306  146.6579  155.6909 C.3     1  UNL1        0.2375
     33 C         138.8478  148.0781  155.6809 C.3     1  UNL1        0.0910
     34 C         139.3805  149.0442  154.6645 C.3     1  UNL1        0.1246
     35 C         139.5852  150.3221  153.9062 C.3     1  UNL1        0.0324
     36 C         140.3959  148.5900  153.6581 C.3     1  UNL1        0.1623
     37 O         140.9285  149.5562  152.6418 O.3     1  UNL1       -0.3796
     38 C         140.8785  147.1699  153.6681 C.3     1  UNL1        0.1468
     39 C         141.8939  146.7158  152.6617 C.3     1  UNL1        0.0348
     40 O         140.3459  146.2038  154.6844 O.3     1  UNL1       -0.3304
     41 H         140.5160  150.4241  152.7735 H       1  UNL1        0.2105
     42 O         138.4362  149.9421  155.4076 O.3     1  UNL1       -0.3532
     43 C         138.4470  149.9652  156.9073 C.3     1  UNL1        0.1740
     44 O         141.6728  144.7297  159.6520 O.3     1  UNL1       -0.3287
     45 C         141.6273  144.5520  161.1408 C.3     1  UNL1        0.2643
     46 O         142.8832  144.6833  161.9505 O.3     1  UNL1       -0.3311
     47 C         142.8377  144.5056  163.4392 C.3     1  UNL1        0.1194
     48 C         144.0936  144.6369  164.2489 C.3     1  UNL1        0.0322
     49 C         141.5364  144.1968  164.1183 C.3     1  UNL1        0.0482
     50 C         140.2805  144.0656  163.3086 C.3     1  UNL1        0.0921
     51 C         140.3259  144.2432  161.8199 C.3     1  UNL1        0.1815
     52 O         139.0701  144.1120  161.0102 O.3     1  UNL1       -0.3783
     53 H         139.2735  144.2549  160.0726 H       1  UNL1        0.2106
     54 N         138.9792  143.7567  163.9878 N.3     1  UNL1       -0.2692
     55 C         138.3747  144.7485  164.9370 C.3     1  UNL1        0.0897
     56 C         138.2824  142.4561  163.7177 C.3     1  UNL1        0.0897
@<TRIPOS>BOND
     1    29    30    1
     2     1    30    1
     3     1     2    1
     4     2     3    1
     5     3     4    2
     6     3     5    1
     7     5     6    1
     8     5     7    1
     9     7    31    1
    10    32    31    1
    11    32    33    1
    12    33    34    1
    13    34    35    1
    14    34    42    1
    15    42    43    1
    16    34    36    1
    17    36    37    1
    18    36    38    1
    19    38    39    1
    20    38    40    1
    21     7     8    1
    22     8     9    1
    23     8    10    1
    24    10    44    1
    25    45    44    1
    26    45    46    1
    27    46    47    1
    28    47    48    1
    29    47    49    1
    30    49    50    1
    31    50    54    1
    32    54    55    1
    33    54    56    1
    34    50    51    1
    35    51    52    1
    36    10    11    1
    37    11    12    1
    38    11    13    1
    39    11    14    1
    40    14    15    1
    41    15    16    1
    42    15    17    1
    43    17    18    2
    44    17    19    1
    45    19    20    1
    46    19    21    1
    47    21    22    1
    48    21    23    1
    49    23    24    1
    50    23    25    1
    51    23     1    1
    52    40    32    1
    53    51    45    1
    54    37    41    1
    55    52    53    1
    56    13    26    1
    57    22    27    1
    58    25    28    1
@<TRIPOS>MOLECULE
*****
 56 58 0 0 0
SMALL
GASTEIGER

@<TRIPOS>ATOM
      1 C         138.9659  138.4702  154.7554 C.3     1  UNL1        0.1953
      2 O         140.0370  137.8956  155.6344 O.3     1  UNL1       -0.4497
      3 C         141.1267  137.9715  156.6624 C.2     1  UNL1        0.3188
      4 O         141.5697  136.5437  156.7853 O.2     1  UNL1       -0.2500
      5 C         142.0193  138.6829  157.6358 C.3     1  UNL1        0.1263
      6 C         142.5954  137.4984  157.9315 C.3     1  UNL1        0.0142
      7 C         142.5379  139.8888  158.3616 C.3     1  UNL1        0.1306
      8 C         142.5797  141.3504  158.6963 C.3     1  UNL1        0.0575
      9 C         143.6695  141.4263  159.7243 C.3     1  UNL1        0.0051
     10 C         142.1367  142.7782  158.5735 C.3     1  UNL1        0.1444
     11 C         141.2965  143.8894  158.0174 C.3     1  UNL1        0.1137
     12 C         142.2771  144.3987  159.0318 C.3     1  UNL1        0.0318
     13 O         141.1727  145.3728  158.2026 O.3     1  UNL1       -0.3844
     14 C         140.2254  144.4640  157.1384 C.3     1  UNL1        0.0366
     15 C         139.1357  144.3881  156.1104 C.3     1  UNL1        0.0601
     16 C         138.6927  145.8159  155.9875 C.3     1  UNL1        0.0078
     17 C         138.2431  143.6767  155.1370 C.2     1  UNL1        0.1523
     18 O         137.4029  144.7880  154.5810 O.2     1  UNL1       -0.2960
     19 C         137.7245  142.4708  154.4112 C.3     1  UNL1        0.0869
     20 C         136.6535  143.0454  153.5321 C.3     1  UNL1        0.0104
     21 C         137.6826  141.0092  154.0765 C.3     1  UNL1        0.1451
     22 O         136.5929  140.9333  153.0485 O.3     1  UNL1       -0.3815
     23 C         138.1257  139.5814  154.1994 C.3     1  UNL1        0.1497
     24 C         137.0175  139.7272  153.1991 C.3     1  UNL1        0.0356
     25 O         137.7590  138.2601  153.5913 O.3     1  UNL1       -0.3808
     26 H         141.8180  145.6712  158.8625 H       1  UNL1        0.2103
     27 H         136.2326  141.8204  152.8932 H       1  UNL1        0.2105
     28 H         137.0419  138.3870  152.9506 H       1  UNL1        0.2105
     29 C         139.2325  136.6769  152.8944 C.3     1  UNL1        0.0039
     30 C         138.4473  137.2643  154.0295 C.3     1  UNL1        0.0462
     31 O         143.6089  139.3142  159.2407 O.3     1  UNL1       -0.3323
     32 C         143.3121  139.0011  160.6773 C.3     1  UNL1        0.2375
     33 C         142.0273  138.3208  161.0466 C.3     1  UNL1        0.0910
     34 C         141.7304  138.0077  162.4833 C.3     1  UNL1        0.1246
     35 C         141.0027  137.5066  163.6954 C.3     1  UNL1        0.0324
     36 C         142.7185  138.3749  163.5506 C.3     1  UNL1        0.1623
     37 O         142.4216  138.0617  164.9871 O.3     1  UNL1       -0.3796
     38 C         144.0033  139.0552  163.1811 C.3     1  UNL1        0.1468
     39 C         144.9913  139.4223  164.2485 C.3     1  UNL1        0.0348
     40 O         144.3001  139.3683  161.7446 O.3     1  UNL1       -0.3304
     41 H         141.5576  137.6255  165.0510 H       1  UNL1        0.2105
     42 O         140.4897  137.4665  161.8370 O.3     1  UNL1       -0.3532
     43 C         139.7448  138.2949  160.8327 C.3     1  UNL1        0.1740
     44 O         143.0292  143.4895  159.5467 O.3     1  UNL1       -0.3287
     45 C         142.5045  143.8839  160.8955 C.3     1  UNL1        0.2643
     46 O         141.0697  144.2924  161.0520 O.3     1  UNL1       -0.3311
     47 C         140.5451  144.6868  162.4008 C.3     1  UNL1        0.1194
     48 C         139.1103  145.0954  162.5573 C.3     1  UNL1        0.0322
     49 C         141.4552  144.6726  163.5931 C.3     1  UNL1        0.0482
     50 C         142.8900  144.2640  163.4366 C.3     1  UNL1        0.0921
     51 C         143.4147  143.8697  162.0879 C.3     1  UNL1        0.1815
     52 O         144.8494  143.4611  161.9313 O.3     1  UNL1       -0.3783
     53 H         145.0230  143.2392  161.0031 H       1  UNL1        0.2106
     54 N         143.8000  144.2499  164.6289 N.3     1  UNL1       -0.2692
     55 C         144.4710  145.5149  165.0754 C.3     1  UNL1        0.0897
     56 C         144.0391  142.9706  165.3747 C.3     1  UNL1        0.0897
@<TRIPOS>BOND
     1    29    30    1
     2     1    30    1
     3     1     2    1
     4     2     3    1
     5     3     4    2
     6     3     5    1
     7     5     6    1
     8     5     7    1
     9     7    31    1
    10    32    31    1
    11    32    33    1
    12    33    34    1
    13    34    35    1
    14    34    42    1
    15    42    43    1
    16    34    36    1
    17    36    37    1
    18    36    38    1
    19    38    39    1
    20    38    40    1
    21     7     8    1
    22     8     9    1
    23     8    10    1
    24    10    44    1
    25    45    44    1
    26    45    46    1
    27    46    47    1
    28    47    48    1
    29    47    49    1
    30    49    50    1
    31    50    54    1
    32    54    55    1
    33    54    56    1
    34    50    51    1
    35    51    52    1
    36    10    11    1
    37    11    12    1
    38    11    13    1
    39    11    14    1
    40    14    15    1
    41    15    16    1
    42    15    17    1
    43    17    18    2
    44    17    19    1
    45    19    20    1
    46    19    21    1
    47    21    22    1
    48    21    23    1
    49    23    24    1
    50    23    25    1
    51    23     1    1
    52    40    32    1
    53    51    45    1
    54    37    41    1
    55    52    53    1
    56    13    26    1
    57    22    27    1
    58    25    28    1
@<TRIPOS>MOLECULE
*****
 56 58 0 0 0
SMALL
GASTEIGER

@<TRIPOS>ATOM
      1 C         142.2828  143.4345  153.7517 C.3     1  UNL1        0.1953
      2 O         143.3033  142.9914  154.7579 O.3     1  UNL1       -0.4497
      3 C         143.7504  142.3320  156.0287 C.2     1  UNL1        0.3188
      4 O         145.2377  142.5248  155.9995 O.2     1  UNL1       -0.2500
      5 C         143.5357  141.5866  157.3127 C.3     1  UNL1        0.1263
      6 C         144.8682  141.6250  157.5262 C.3     1  UNL1        0.0142
      7 C         142.7017  140.9031  158.3553 C.3     1  UNL1        0.1306
      8 C         141.4133  140.4167  158.9501 C.3     1  UNL1        0.0575
      9 C         141.8605  139.7572  160.2210 C.3     1  UNL1        0.0051
     10 C         139.9261  140.2239  158.9794 C.3     1  UNL1        0.1444
     11 C         138.5344  140.3627  158.4373 C.3     1  UNL1        0.1137
     12 C         138.5422  139.6299  159.7460 C.3     1  UNL1        0.0318
     13 O         137.1484  139.9661  158.8514 O.3     1  UNL1       -0.3844
     14 C         137.5139  140.8058  157.4312 C.3     1  UNL1        0.0366
     15 C         137.0667  141.4652  156.1603 C.3     1  UNL1        0.0601
     16 C         135.5795  141.2724  156.1896 C.3     1  UNL1        0.0078
     17 C         137.2814  142.2106  154.8764 C.2     1  UNL1        0.1523
     18 O         135.8897  142.3494  154.3343 O.2     1  UNL1       -0.2960
     19 C         138.1155  142.8941  153.8338 C.3     1  UNL1        0.0869
     20 C         137.0950  143.3372  152.8276 C.3     1  UNL1        0.0104
     21 C         139.4039  143.3805  153.2389 C.3     1  UNL1        0.1451
     22 O         138.9566  144.0400  151.9680 O.3     1  UNL1       -0.3815
     23 C         140.8911  143.5733  153.2096 C.3     1  UNL1        0.1497
     24 C         140.2368  144.1735  152.0007 C.3     1  UNL1        0.0356
     25 O         141.9002  144.2047  152.2970 O.3     1  UNL1       -0.3808
     26 H         137.1863  139.4955  159.6988 H       1  UNL1        0.2103
     27 H         137.9924  143.9697  151.8893 H       1  UNL1        0.2105
     28 H         141.4478  144.5829  151.5269 H       1  UNL1        0.2105
     29 C         143.6470  145.4987  152.9594 C.3     1  UNL1        0.0039
     30 C         143.1169  144.1180  152.7091 C.3     1  UNL1        0.0462
     31 O         143.7221  140.4600  159.3614 O.3     1  UNL1       -0.3323
     32 C         143.9418  141.2620  160.6098 C.3     1  UNL1        0.2375
     33 C         143.4395  142.6730  160.6928 C.3     1  UNL1        0.0910
     34 C         143.6592  143.4751  161.9412 C.3     1  UNL1        0.1246
     35 C         143.6239  144.6277  162.9006 C.3     1  UNL1        0.0324
     36 C         144.3812  142.8662  163.1066 C.3     1  UNL1        0.1623
     37 O         144.6008  143.6683  164.3549 O.3     1  UNL1       -0.3796
     38 C         144.8834  141.4552  163.0235 C.3     1  UNL1        0.1468
     39 C         145.6054  140.8463  164.1889 C.3     1  UNL1        0.0348
     40 O         144.6638  140.6532  161.7752 O.3     1  UNL1       -0.3304
     41 H         144.2172  144.5521  164.2430 H       1  UNL1        0.2105
     42 O         142.9250  144.4843  161.1090 O.3     1  UNL1       -0.3532
     43 C         141.5876  144.1422  160.5223 C.3     1  UNL1        0.1740
     44 O         139.7114  139.4786  160.2633 O.3     1  UNL1       -0.3287
     45 C         139.3488  140.2256  161.5125 C.3     1  UNL1        0.2643
     46 O         138.8722  141.6452  161.4259 O.3     1  UNL1       -0.3311
     47 C         138.5097  142.3921  162.6752 C.3     1  UNL1        0.1194
     48 C         138.0331  143.8118  162.5886 C.3     1  UNL1        0.0322
     49 C         138.6237  141.7194  164.0110 C.3     1  UNL1        0.0482
     50 C         139.1003  140.2998  164.0976 C.3     1  UNL1        0.0921
     51 C         139.4629  139.5528  162.8484 C.3     1  UNL1        0.1815
     52 O         139.9395  138.1332  162.9350 O.3     1  UNL1       -0.3783
     53 H         140.1297  137.8011  162.0437 H       1  UNL1        0.2106
     54 N         139.2143  139.6272  165.4335 N.3     1  UNL1       -0.2692
     55 C         140.5162  139.6541  166.1781 C.3     1  UNL1        0.0897
     56 C         138.0265  138.9276  166.0248 C.3     1  UNL1        0.0897
@<TRIPOS>BOND
     1    29    30    1
     2     1    30    1
     3     1     2    1
     4     2     3    1
     5     3     4    2
     6     3     5    1
     7     5     6    1
     8     5     7    1
     9     7    31    1
    10    32    31    1
    11    32    33    1
    12    33    34    1
    13    34    35    1
    14    34    42    1
    15    42    43    1
    16    34    36    1
    17    36    37    1
    18    36    38    1
    19    38    39    1
    20    38    40    1
    21     7     8    1
    22     8     9    1
    23     8    10    1
    24    10    44    1
    25    45    44    1
    26    45    46    1
    27    46    47    1
    28    47    48    1
    29    47    49    1
    30    49    50    1
    31    50    54    1
    32    54    55    1
    33    54    56    1
    34    50    51    1
    35    51    52    1
    36    10    11    1
    37    11    12    1
    38    11    13    1
    39    11    14    1
    40    14    15    1
    41    15    16    1
    42    15    17    1
    43    17    18    2
    44    17    19    1
    45    19    20    1
    46    19    21    1
    47    21    22    1
    48    21    23    1
    49    23    24    1
    50    23    25    1
    51    23     1    1
    52    40    32    1
    53    51    45    1
    54    37    41    1
    55    52    53    1
    56    13    26    1
    57    22    27    1
    58    25    28    1
@<TRIPOS>MOLECULE
*****
 56 58 0 0 0
SMALL
GASTEIGER

@<TRIPOS>ATOM
      1 C         139.8501  143.8602  164.0359 C.3     1  UNL1        0.1953
      2 O         139.9366  144.8006  162.8705 O.3     1  UNL1       -0.4497
      3 C         140.3199  145.1897  161.4736 C.2     1  UNL1        0.3188
      4 O         139.8236  146.6016  161.3722 O.2     1  UNL1       -0.2500
      5 C         140.9240  144.9505  160.1215 C.3     1  UNL1        0.1263
      6 C         140.5792  146.2088  159.7748 C.3     1  UNL1        0.0142
      7 C         141.6294  144.1303  159.0824 C.3     1  UNL1        0.1306
      8 C         142.2963  142.8915  158.5620 C.3     1  UNL1        0.0575
      9 C         142.6795  143.2807  157.1649 C.3     1  UNL1        0.0051
     10 C         142.7926  141.4797  158.6633 C.3     1  UNL1        0.1444
     11 C         143.0200  140.1742  159.3662 C.3     1  UNL1        0.1137
     12 C         143.5620  140.1454  157.9679 C.3     1  UNL1        0.0318
     13 O         143.6435  138.8477  159.0475 O.3     1  UNL1       -0.3844
     14 C         142.9335  139.2338  160.5316 C.3     1  UNL1        0.0366
     15 C         142.5502  138.8447  161.9286 C.3     1  UNL1        0.0601
     16 C         143.0465  137.4328  162.0299 C.3     1  UNL1        0.0078
     17 C         141.9461  139.0839  163.2806 C.2     1  UNL1        0.1523
     18 O         142.1735  137.7785  163.9836 O.2     1  UNL1       -0.2960
     19 C         141.2407  139.9041  164.3197 C.3     1  UNL1        0.0869
     20 C         141.1542  138.9637  165.4852 C.3     1  UNL1        0.0104
     21 C         140.5738  141.1429  164.8402 C.3     1  UNL1        0.1451
     22 O         140.1905  140.7537  166.2372 O.3     1  UNL1       -0.3815
     23 C         140.0775  142.5548  164.7389 C.3     1  UNL1        0.1497
     24 C         139.7874  141.9674  166.0883 C.3     1  UNL1        0.0356
     25 O         139.3693  143.5375  165.6235 O.3     1  UNL1       -0.3808
     26 H         143.9837  138.8603  158.1392 H       1  UNL1        0.2103
     27 H         140.4716  139.8411  166.4072 H       1  UNL1        0.2105
     28 H         139.1961  143.1295  166.4863 H       1  UNL1        0.2105
     29 C         137.6492  144.6329  165.1800 C.3     1  UNL1        0.0039
     30 C         139.1447  144.6804  165.0751 C.3     1  UNL1        0.0462
     31 O         141.7159  145.0707  157.9170 O.3     1  UNL1       -0.3323
     32 C         140.5259  145.2728  157.0265 C.3     1  UNL1        0.2375
     33 C         139.5352  144.1628  156.8353 C.3     1  UNL1        0.0910
     34 C         138.3451  144.3648  155.9448 C.3     1  UNL1        0.1246
     35 C         137.0706  144.0764  155.2084 C.3     1  UNL1        0.0324
     36 C         138.1458  145.6768  155.2454 C.3     1  UNL1        0.1623
     37 O         136.9558  145.8787  154.3550 O.3     1  UNL1       -0.3796
     38 C         139.1366  146.7867  155.4366 C.3     1  UNL1        0.1468
     39 C         138.9372  148.0986  154.7372 C.3     1  UNL1        0.0348
     40 O         140.3265  146.5847  156.3271 O.3     1  UNL1       -0.3304
     41 H         136.4207  145.0698  154.3419 H       1  UNL1        0.2105
     42 O         138.1018  142.9527  156.3884 O.3     1  UNL1       -0.3532
     43 C         138.1972  142.5963  157.8423 C.3     1  UNL1        0.1740
     44 O         143.3967  141.2404  157.3114 O.3     1  UNL1       -0.3287
     45 C         142.9854  140.0427  156.5074 C.3     1  UNL1        0.2643
     46 O         143.9228  138.8811  156.3591 O.3     1  UNL1       -0.3311
     47 C         143.5115  137.6834  155.5551 C.3     1  UNL1        0.1194
     48 C         144.4489  136.5217  155.4069 C.3     1  UNL1        0.0322
     49 C         142.1629  137.6473  154.8994 C.3     1  UNL1        0.0482
     50 C         141.2256  138.8090  155.0477 C.3     1  UNL1        0.0921
     51 C         141.6368  140.0067  155.8516 C.3     1  UNL1        0.1815
     52 O         140.6995  141.1683  155.9999 O.3     1  UNL1       -0.3783
     53 H         141.1169  141.8530  156.5457 H       1  UNL1        0.2106
     54 N         139.8769  138.7728  154.3919 N.3     1  UNL1       -0.2692
     55 C         139.6652  139.4574  153.0742 C.3     1  UNL1        0.0897
     56 C         138.7402  138.0522  155.0540 C.3     1  UNL1        0.0897
@<TRIPOS>BOND
     1    29    30    1
     2     1    30    1
     3     1     2    1
     4     2     3    1
     5     3     4    2
     6     3     5    1
     7     5     6    1
     8     5     7    1
     9     7    31    1
    10    32    31    1
    11    32    33    1
    12    33    34    1
    13    34    35    1
    14    34    42    1
    15    42    43    1
    16    34    36    1
    17    36    37    1
    18    36    38    1
    19    38    39    1
    20    38    40    1
    21     7     8    1
    22     8     9    1
    23     8    10    1
    24    10    44    1
    25    45    44    1
    26    45    46    1
    27    46    47    1
    28    47    48    1
    29    47    49    1
    30    49    50    1
    31    50    54    1
    32    54    55    1
    33    54    56    1
    34    50    51    1
    35    51    52    1
    36    10    11    1
    37    11    12    1
    38    11    13    1
    39    11    14    1
    40    14    15    1
    41    15    16    1
    42    15    17    1
    43    17    18    2
    44    17    19    1
    45    19    20    1
    46    19    21    1
    47    21    22    1
    48    21    23    1
    49    23    24    1
    50    23    25    1
    51    23     1    1
    52    40    32    1
    53    51    45    1
    54    37    41    1
    55    52    53    1
    56    13    26    1
    57    22    27    1
    58    25    28    1
@<TRIPOS>MOLECULE
*****
 56 58 0 0 0
SMALL
GASTEIGER

@<TRIPOS>ATOM
      1 C         139.6703  139.0807  164.4124 C.3     1  UNL1        0.1953
      2 O         138.7556  138.8884  163.2392 O.3     1  UNL1       -0.4497
      3 C         138.1688  139.2559  161.9086 C.2     1  UNL1        0.3188
      4 O         137.1710  138.1615  161.6700 O.2     1  UNL1       -0.2500
      5 C         138.0260  140.1104  160.6840 C.3     1  UNL1        0.1263
      6 C         137.0784  139.2605  160.2345 C.3     1  UNL1        0.0142
      7 C         138.3555  141.2828  159.8082 C.3     1  UNL1        0.1306
      8 C         139.0921  142.5408  159.4546 C.3     1  UNL1        0.0575
      9 C         138.5052  142.9082  158.1239 C.3     1  UNL1        0.0051
     10 C         140.0898  143.6351  159.6930 C.3     1  UNL1        0.1444
     11 C         141.1511  144.3491  160.4765 C.3     1  UNL1        0.1137
     12 C         140.8525  145.0559  159.1876 C.3     1  UNL1        0.0318
     13 O         141.9942  145.5796  160.3182 O.3     1  UNL1       -0.3844
     14 C         142.0658  144.5414  161.6497 C.3     1  UNL1        0.0366
     15 C         142.6526  144.1739  162.9803 C.3     1  UNL1        0.0601
     16 C         143.6503  145.2683  163.2189 C.3     1  UNL1        0.0078
     17 C         142.7954  143.3194  164.2049 C.2     1  UNL1        0.1523
     18 O         143.8567  144.0335  164.9883 O.2     1  UNL1       -0.2960
     19 C         142.4659  142.1470  165.0807 C.3     1  UNL1        0.0869
     20 C         143.3805  142.3394  166.2539 C.3     1  UNL1        0.0104
     21 C         141.7292  140.8891  165.4343 C.3     1  UNL1        0.1451
     22 O         142.3161  140.5216  166.7650 O.3     1  UNL1       -0.3815
     23 C         140.7316  139.7947  165.1958 C.3     1  UNL1        0.1497
     24 C         141.4444  139.6111  166.5028 C.3     1  UNL1        0.0356
     25 O         140.2547  138.5662  165.9123 O.3     1  UNL1       -0.3808
     26 H         141.7787  146.0133  159.4778 H       1  UNL1        0.2103
     27 H         142.9849  141.1779  167.0157 H       1  UNL1        0.2105
     28 H         140.7328  138.4751  166.7513 H       1  UNL1        0.2105
     29 C         138.1675  137.9749  166.2204 C.3     1  UNL1        0.0039
     30 C         139.3407  137.9083  165.2882 C.3     1  UNL1        0.0462
     31 O         137.4408  141.0905  158.6350 O.3     1  UNL1       -0.3323
     32 C         137.9111  140.3225  157.4354 C.3     1  UNL1        0.2375
     33 C         139.2555  139.6572  157.4507 C.3     1  UNL1        0.0910
     34 C         139.7259  138.8891  156.2511 C.3     1  UNL1        0.1246
     35 C         140.6059  138.0564  155.3668 C.3     1  UNL1        0.0324
     36 C         138.8518  138.7864  155.0363 C.3     1  UNL1        0.1623
     37 O         139.3222  138.0184  153.8368 O.3     1  UNL1       -0.3796
     38 C         137.5075  139.4517  155.0212 C.3     1  UNL1        0.1468
     39 C         136.6336  139.3489  153.8064 C.3     1  UNL1        0.0348
     40 O         137.0372  140.2197  156.2206 O.3     1  UNL1       -0.3304
     41 H         140.2045  137.6548  154.0113 H       1  UNL1        0.2105
     42 O         140.9054  138.7027  157.1587 O.3     1  UNL1       -0.3532
     43 C         141.6795  139.8950  157.6372 C.3     1  UNL1        0.1740
     44 O         139.9470  144.4896  158.4686 O.3     1  UNL1       -0.3287
     45 C         140.8543  144.2742  157.2937 C.3     1  UNL1        0.2643
     46 O         142.1220  143.4895  157.4589 O.3     1  UNL1       -0.3311
     47 C         143.0292  143.2741  156.2840 C.3     1  UNL1        0.1194
     48 C         144.2970  142.4894  156.4493 C.3     1  UNL1        0.0322
     49 C         142.6689  143.8433  154.9439 C.3     1  UNL1        0.0482
     50 C         141.4012  144.6280  154.7786 C.3     1  UNL1        0.0921
     51 C         140.4939  144.8435  155.9534 C.3     1  UNL1        0.1815
     52 O         139.2263  145.6282  155.7883 O.3     1  UNL1       -0.3783
     53 H         138.7605  145.6727  156.6380 H       1  UNL1        0.2106
     54 N         141.0409  145.1973  153.4384 N.3     1  UNL1       -0.2692
     55 C         140.3490  144.3397  152.4207 C.3     1  UNL1        0.0897
     56 C         141.3725  146.6242  153.1159 C.3     1  UNL1        0.0897
@<TRIPOS>BOND
     1    29    30    1
     2     1    30    1
     3     1     2    1
     4     2     3    1
     5     3     4    2
     6     3     5    1
     7     5     6    1
     8     5     7    1
     9     7    31    1
    10    32    31    1
    11    32    33    1
    12    33    34    1
    13    34    35    1
    14    34    42    1
    15    42    43    1
    16    34    36    1
    17    36    37    1
    18    36    38    1
    19    38    39    1
    20    38    40    1
    21     7     8    1
    22     8     9    1
    23     8    10    1
    24    10    44    1
    25    45    44    1
    26    45    46    1
    27    46    47    1
    28    47    48    1
    29    47    49    1
    30    49    50    1
    31    50    54    1
    32    54    55    1
    33    54    56    1
    34    50    51    1
    35    51    52    1
    36    10    11    1
    37    11    12    1
    38    11    13    1
    39    11    14    1
    40    14    15    1
    41    15    16    1
    42    15    17    1
    43    17    18    2
    44    17    19    1
    45    19    20    1
    46    19    21    1
    47    21    22    1
    48    21    23    1
    49    23    24    1
    50    23    25    1
    51    23     1    1
    52    40    32    1
    53    51    45    1
    54    37    41    1
    55    52    53    1
    56    13    26    1
    57    22    27    1
    58    25    28    1
